# generated using pymatgen
data_Li
_symmetry_space_group_name_H-M   'P 1'
_cell_length_a   7.12600000
_cell_length_b   4.15000000
_cell_length_c   4.14100000
_cell_angle_alpha   90.00000000
_cell_angle_beta   90.00000000
_cell_angle_gamma   90.00000000
_symmetry_Int_Tables_number   1
_chemical_formula_structural   Li
_chemical_formula_sum   Li24
_cell_volume   122.46137890
_cell_formula_units_Z   24
loop_
 _symmetry_equiv_pos_site_id
 _symmetry_equiv_pos_as_xyz
  1  'x, y, z'
loop_
 _atom_type_symbol
 _atom_type_oxidation_number
  Li0+  0.0
loop_
 _atom_site_type_symbol
 _atom_site_label
 _atom_site_symmetry_multiplicity
 _atom_site_fract_x
 _atom_site_fract_y
 _atom_site_fract_z
 _atom_site_occupancy
  Li0+  Li0  1  0.50000000  0.33400000  0.56900000  1.0
  Li0+  Li1  1  0.50000000  0.66600000  0.43100000  1.0
  Li0+  Li2  1  0.50000000  0.16600000  0.06900000  1.0
  Li0+  Li3  1  0.50000000  0.83400000  0.93100000  1.0
  Li0+  Li4  1  0.00000000  0.83400000  0.56900000  1.0
  Li0+  Li5  1  0.00000000  0.16600000  0.43100000  1.0
  Li0+  Li6  1  0.00000000  0.66600000  0.06900000  1.0
  Li0+  Li7  1  0.00000000  0.33400000  0.93100000  1.0
  Li0+  Li8  1  0.66900000  0.10900000  0.64800000  1.0
  Li0+  Li9  1  0.66900000  0.89100000  0.35200000  1.0
  Li0+  Li10  1  0.66900000  0.39100000  0.14800000  1.0
  Li0+  Li11  1  0.66900000  0.60900000  0.85200000  1.0
  Li0+  Li12  1  0.33100000  0.89100000  0.35200000  1.0
  Li0+  Li13  1  0.33100000  0.10900000  0.64800000  1.0
  Li0+  Li14  1  0.33100000  0.60900000  0.85200000  1.0
  Li0+  Li15  1  0.33100000  0.39100000  0.14800000  1.0
  Li0+  Li16  1  0.16900000  0.60900000  0.64800000  1.0
  Li0+  Li17  1  0.16900000  0.39100000  0.35200000  1.0
  Li0+  Li18  1  0.16900000  0.89100000  0.14800000  1.0
  Li0+  Li19  1  0.16900000  0.10900000  0.85200000  1.0
  Li0+  Li20  1  0.83100000  0.39100000  0.35200000  1.0
  Li0+  Li21  1  0.83100000  0.60900000  0.64800000  1.0
  Li0+  Li22  1  0.83100000  0.10900000  0.85200000  1.0
  Li0+  Li23  1  0.83100000  0.89100000  0.14800000  1.0
