# generated using pymatgen
data_LiMn2O4
_symmetry_space_group_name_H-M   'P 1'
_cell_length_a   24.63880000
_cell_length_b   24.79780000
_cell_length_c   8.21781000
_cell_angle_alpha   90.00000000
_cell_angle_beta   90.00000000
_cell_angle_gamma   90.00000000
_symmetry_Int_Tables_number   1
_chemical_formula_structural   LiMn2O4
_chemical_formula_sum   'Li72 Mn144 O288'
_cell_volume   5020.98358094
_cell_formula_units_Z   72
loop_
 _symmetry_equiv_pos_site_id
 _symmetry_equiv_pos_as_xyz
  1  'x, y, z'
loop_
 _atom_type_symbol
 _atom_type_oxidation_number
  Li+  1.0
  Mn3.1+  3.1
  Mn4+  4.0
  O2-  -2.0
loop_
 _atom_site_type_symbol
 _atom_site_label
 _atom_site_symmetry_multiplicity
 _atom_site_fract_x
 _atom_site_fract_y
 _atom_site_fract_z
 _atom_site_occupancy
  Li+  Li0  1  0.87500000  0.87500000  0.87500000  1.0
  Li+  Li1  1  0.12500000  0.12500000  0.12500000  1.0
  Li+  Li2  1  0.87500000  0.37500000  0.37500000  1.0
  Li+  Li3  1  0.12500000  0.62500000  0.62500000  1.0
  Li+  Li4  1  0.37500000  0.87500000  0.37500000  1.0
  Li+  Li5  1  0.62500000  0.12500000  0.62500000  1.0
  Li+  Li6  1  0.37500000  0.37500000  0.87500000  1.0
  Li+  Li7  1  0.62500000  0.62500000  0.12500000  1.0
  Li+  Li8  1  0.87500000  0.53980000  0.87500000  1.0
  Li+  Li9  1  0.87500000  0.21020000  0.87500000  1.0
  Li+  Li10  1  0.12500000  0.46020000  0.12500000  1.0
  Li+  Li11  1  0.12500000  0.78980000  0.12500000  1.0
  Li+  Li12  1  0.87500000  0.03980000  0.37500000  1.0
  Li+  Li13  1  0.87500000  0.71020000  0.37500000  1.0
  Li+  Li14  1  0.12500000  0.96020000  0.62500000  1.0
  Li+  Li15  1  0.12500000  0.28980000  0.62500000  1.0
  Li+  Li16  1  0.37500000  0.53980000  0.37500000  1.0
  Li+  Li17  1  0.37500000  0.21020000  0.37500000  1.0
  Li+  Li18  1  0.62500000  0.46020000  0.62500000  1.0
  Li+  Li19  1  0.62500000  0.78980000  0.62500000  1.0
  Li+  Li20  1  0.37500000  0.03980000  0.87500000  1.0
  Li+  Li21  1  0.37500000  0.71020000  0.87500000  1.0
  Li+  Li22  1  0.62500000  0.96020000  0.12500000  1.0
  Li+  Li23  1  0.62500000  0.28980000  0.12500000  1.0
  Li+  Li24  1  0.54500000  0.87500000  0.87500000  1.0
  Li+  Li25  1  0.20500000  0.87500000  0.87500000  1.0
  Li+  Li26  1  0.45500000  0.12500000  0.12500000  1.0
  Li+  Li27  1  0.79500000  0.12500000  0.12500000  1.0
  Li+  Li28  1  0.54500000  0.37500000  0.37500000  1.0
  Li+  Li29  1  0.20500000  0.37500000  0.37500000  1.0
  Li+  Li30  1  0.45500000  0.62500000  0.62500000  1.0
  Li+  Li31  1  0.79500000  0.62500000  0.62500000  1.0
  Li+  Li32  1  0.04500000  0.87500000  0.37500000  1.0
  Li+  Li33  1  0.70500000  0.87500000  0.37500000  1.0
  Li+  Li34  1  0.95500000  0.12500000  0.62500000  1.0
  Li+  Li35  1  0.29500000  0.12500000  0.62500000  1.0
  Li+  Li36  1  0.04500000  0.37500000  0.87500000  1.0
  Li+  Li37  1  0.70500000  0.37500000  0.87500000  1.0
  Li+  Li38  1  0.95500000  0.62500000  0.12500000  1.0
  Li+  Li39  1  0.29500000  0.62500000  0.12500000  1.0
  Li+  Li40  1  0.04650000  0.05160000  0.88380000  1.0
  Li+  Li41  1  0.04650000  0.69840000  0.86620000  1.0
  Li+  Li42  1  0.70350000  0.05160000  0.86620000  1.0
  Li+  Li43  1  0.70350000  0.69840000  0.88380000  1.0
  Li+  Li44  1  0.95350000  0.94840000  0.11620000  1.0
  Li+  Li45  1  0.95350000  0.30160000  0.13380000  1.0
  Li+  Li46  1  0.29650000  0.94840000  0.13380000  1.0
  Li+  Li47  1  0.29650000  0.30160000  0.11620000  1.0
  Li+  Li48  1  0.04650000  0.55160000  0.38380000  1.0
  Li+  Li49  1  0.04650000  0.19840000  0.36620000  1.0
  Li+  Li50  1  0.70350000  0.55160000  0.36620000  1.0
  Li+  Li51  1  0.70350000  0.19840000  0.38380000  1.0
  Li+  Li52  1  0.95350000  0.44840000  0.61620000  1.0
  Li+  Li53  1  0.95350000  0.80160000  0.63380000  1.0
  Li+  Li54  1  0.29650000  0.44840000  0.63380000  1.0
  Li+  Li55  1  0.29650000  0.80160000  0.61620000  1.0
  Li+  Li56  1  0.54650000  0.05160000  0.38380000  1.0
  Li+  Li57  1  0.54650000  0.69840000  0.36620000  1.0
  Li+  Li58  1  0.20350000  0.05160000  0.36620000  1.0
  Li+  Li59  1  0.20350000  0.69840000  0.38380000  1.0
  Li+  Li60  1  0.45350000  0.94840000  0.61620000  1.0
  Li+  Li61  1  0.45350000  0.30160000  0.63380000  1.0
  Li+  Li62  1  0.79650000  0.94840000  0.63380000  1.0
  Li+  Li63  1  0.79650000  0.30160000  0.61620000  1.0
  Li+  Li64  1  0.54650000  0.55160000  0.88380000  1.0
  Li+  Li65  1  0.54650000  0.19840000  0.86620000  1.0
  Li+  Li66  1  0.20350000  0.55160000  0.86620000  1.0
  Li+  Li67  1  0.20350000  0.19840000  0.88380000  1.0
  Li+  Li68  1  0.45350000  0.44840000  0.11620000  1.0
  Li+  Li69  1  0.45350000  0.80160000  0.13380000  1.0
  Li+  Li70  1  0.79650000  0.44840000  0.13380000  1.0
  Li+  Li71  1  0.79650000  0.80160000  0.11620000  1.0
  Mn3.1+  Mn72  1  0.00000000  0.00000000  0.50000000  1.0
  Mn3.1+  Mn73  1  0.00000000  0.75000000  0.25000000  1.0
  Mn3.1+  Mn74  1  0.75000000  0.00000000  0.25000000  1.0
  Mn3.1+  Mn75  1  0.75000000  0.75000000  0.50000000  1.0
  Mn3.1+  Mn76  1  0.00000000  0.25000000  0.75000000  1.0
  Mn3.1+  Mn77  1  0.25000000  0.00000000  0.75000000  1.0
  Mn3.1+  Mn78  1  0.25000000  0.25000000  0.50000000  1.0
  Mn3.1+  Mn79  1  0.00000000  0.50000000  0.00000000  1.0
  Mn3.1+  Mn80  1  0.75000000  0.50000000  0.75000000  1.0
  Mn3.1+  Mn81  1  0.75000000  0.25000000  0.00000000  1.0
  Mn3.1+  Mn82  1  0.25000000  0.50000000  0.25000000  1.0
  Mn3.1+  Mn83  1  0.25000000  0.75000000  0.00000000  1.0
  Mn3.1+  Mn84  1  0.50000000  0.00000000  0.00000000  1.0
  Mn3.1+  Mn85  1  0.50000000  0.75000000  0.75000000  1.0
  Mn3.1+  Mn86  1  0.50000000  0.25000000  0.25000000  1.0
  Mn3.1+  Mn87  1  0.50000000  0.50000000  0.50000000  1.0
  Mn3.1+  Mn88  1  0.83330000  0.83360000  0.49170000  1.0
  Mn3.1+  Mn89  1  0.83330000  0.91640000  0.25830000  1.0
  Mn3.1+  Mn90  1  0.91670000  0.83360000  0.25830000  1.0
  Mn3.1+  Mn91  1  0.91670000  0.91640000  0.49170000  1.0
  Mn3.1+  Mn92  1  0.16670000  0.16640000  0.50830000  1.0
  Mn3.1+  Mn93  1  0.16670000  0.08360000  0.74170000  1.0
  Mn3.1+  Mn94  1  0.08330000  0.16640000  0.74170000  1.0
  Mn3.1+  Mn95  1  0.08330000  0.08360000  0.50830000  1.0
  Mn3.1+  Mn96  1  0.83330000  0.33360000  0.99170000  1.0
  Mn3.1+  Mn97  1  0.83330000  0.41640000  0.75830000  1.0
  Mn3.1+  Mn98  1  0.91670000  0.33360000  0.75830000  1.0
  Mn3.1+  Mn99  1  0.91670000  0.41640000  0.99170000  1.0
  Mn3.1+  Mn100  1  0.16670000  0.66640000  0.00830000  1.0
  Mn3.1+  Mn101  1  0.16670000  0.58360000  0.24170000  1.0
  Mn3.1+  Mn102  1  0.08330000  0.66640000  0.24170000  1.0
  Mn3.1+  Mn103  1  0.08330000  0.58360000  0.00830000  1.0
  Mn3.1+  Mn104  1  0.33330000  0.83360000  0.99170000  1.0
  Mn3.1+  Mn105  1  0.33330000  0.91640000  0.75830000  1.0
  Mn3.1+  Mn106  1  0.41670000  0.83360000  0.75830000  1.0
  Mn3.1+  Mn107  1  0.41670000  0.91640000  0.99170000  1.0
  Mn3.1+  Mn108  1  0.66670000  0.16640000  0.00830000  1.0
  Mn3.1+  Mn109  1  0.66670000  0.08360000  0.24170000  1.0
  Mn3.1+  Mn110  1  0.58330000  0.16640000  0.24170000  1.0
  Mn3.1+  Mn111  1  0.58330000  0.08360000  0.00830000  1.0
  Mn3.1+  Mn112  1  0.33330000  0.33360000  0.49170000  1.0
  Mn3.1+  Mn113  1  0.33330000  0.41640000  0.25830000  1.0
  Mn3.1+  Mn114  1  0.41670000  0.33360000  0.25830000  1.0
  Mn3.1+  Mn115  1  0.41670000  0.41640000  0.49170000  1.0
  Mn3.1+  Mn116  1  0.66670000  0.66640000  0.50830000  1.0
  Mn3.1+  Mn117  1  0.66670000  0.58360000  0.74170000  1.0
  Mn3.1+  Mn118  1  0.58330000  0.66640000  0.74170000  1.0
  Mn3.1+  Mn119  1  0.58330000  0.58360000  0.50830000  1.0
  Mn3.1+  Mn120  1  0.83790000  0.07980000  0.74880000  1.0
  Mn3.1+  Mn121  1  0.83790000  0.67020000  0.00120000  1.0
  Mn3.1+  Mn122  1  0.91210000  0.07980000  0.00120000  1.0
  Mn3.1+  Mn123  1  0.91210000  0.67020000  0.74880000  1.0
  Mn3.1+  Mn124  1  0.16210000  0.92020000  0.25120000  1.0
  Mn3.1+  Mn125  1  0.16210000  0.32980000  0.99880000  1.0
  Mn3.1+  Mn126  1  0.08790000  0.92020000  0.99880000  1.0
  Mn3.1+  Mn127  1  0.08790000  0.32980000  0.25120000  1.0
  Mn3.1+  Mn128  1  0.83790000  0.57980000  0.24880000  1.0
  Mn3.1+  Mn129  1  0.83790000  0.17020000  0.50120000  1.0
  Mn3.1+  Mn130  1  0.91210000  0.57980000  0.50120000  1.0
  Mn3.1+  Mn131  1  0.91210000  0.17020000  0.24880000  1.0
  Mn3.1+  Mn132  1  0.16210000  0.42020000  0.75120000  1.0
  Mn3.1+  Mn133  1  0.16210000  0.82980000  0.49880000  1.0
  Mn3.1+  Mn134  1  0.08790000  0.42020000  0.49880000  1.0
  Mn3.1+  Mn135  1  0.08790000  0.82980000  0.75120000  1.0
  Mn3.1+  Mn136  1  0.33790000  0.07980000  0.24880000  1.0
  Mn3.1+  Mn137  1  0.33790000  0.67020000  0.50120000  1.0
  Mn3.1+  Mn138  1  0.41210000  0.07980000  0.50120000  1.0
  Mn3.1+  Mn139  1  0.41210000  0.67020000  0.24880000  1.0
  Mn3.1+  Mn140  1  0.66210000  0.92020000  0.75120000  1.0
  Mn3.1+  Mn141  1  0.66210000  0.32980000  0.49880000  1.0
  Mn3.1+  Mn142  1  0.58790000  0.92020000  0.49880000  1.0
  Mn3.1+  Mn143  1  0.58790000  0.32980000  0.75120000  1.0
  Mn3.1+  Mn144  1  0.33790000  0.57980000  0.74880000  1.0
  Mn3.1+  Mn145  1  0.33790000  0.17020000  0.00120000  1.0
  Mn3.1+  Mn146  1  0.41210000  0.57980000  0.00120000  1.0
  Mn3.1+  Mn147  1  0.41210000  0.17020000  0.74880000  1.0
  Mn3.1+  Mn148  1  0.66210000  0.42020000  0.25120000  1.0
  Mn3.1+  Mn149  1  0.66210000  0.82980000  0.99880000  1.0
  Mn3.1+  Mn150  1  0.58790000  0.42020000  0.99880000  1.0
  Mn3.1+  Mn151  1  0.58790000  0.82980000  0.25120000  1.0
  Mn4+  Mn152  1  0.00170000  0.91740000  0.74950000  1.0
  Mn4+  Mn153  1  0.00170000  0.83260000  0.00050000  1.0
  Mn4+  Mn154  1  0.74830000  0.91740000  0.00050000  1.0
  Mn4+  Mn155  1  0.74830000  0.83260000  0.74950000  1.0
  Mn4+  Mn156  1  0.99830000  0.08260000  0.25050000  1.0
  Mn4+  Mn157  1  0.99830000  0.16740000  0.99950000  1.0
  Mn4+  Mn158  1  0.25170000  0.08260000  0.99950000  1.0
  Mn4+  Mn159  1  0.25170000  0.16740000  0.25050000  1.0
  Mn4+  Mn160  1  0.00170000  0.41740000  0.24950000  1.0
  Mn4+  Mn161  1  0.00170000  0.33260000  0.50050000  1.0
  Mn4+  Mn162  1  0.74830000  0.41740000  0.50050000  1.0
  Mn4+  Mn163  1  0.74830000  0.33260000  0.24950000  1.0
  Mn4+  Mn164  1  0.99830000  0.58260000  0.75050000  1.0
  Mn4+  Mn165  1  0.99830000  0.66740000  0.49950000  1.0
  Mn4+  Mn166  1  0.25170000  0.58260000  0.49950000  1.0
  Mn4+  Mn167  1  0.25170000  0.66740000  0.75050000  1.0
  Mn4+  Mn168  1  0.50170000  0.91740000  0.24950000  1.0
  Mn4+  Mn169  1  0.50170000  0.83260000  0.50050000  1.0
  Mn4+  Mn170  1  0.24830000  0.91740000  0.50050000  1.0
  Mn4+  Mn171  1  0.24830000  0.83260000  0.24950000  1.0
  Mn4+  Mn172  1  0.49830000  0.08260000  0.75050000  1.0
  Mn4+  Mn173  1  0.49830000  0.16740000  0.49950000  1.0
  Mn4+  Mn174  1  0.75170000  0.08260000  0.49950000  1.0
  Mn4+  Mn175  1  0.75170000  0.16740000  0.75050000  1.0
  Mn4+  Mn176  1  0.50170000  0.41740000  0.74950000  1.0
  Mn4+  Mn177  1  0.50170000  0.33260000  0.00050000  1.0
  Mn4+  Mn178  1  0.24830000  0.41740000  0.00050000  1.0
  Mn4+  Mn179  1  0.24830000  0.33260000  0.74950000  1.0
  Mn4+  Mn180  1  0.49830000  0.58260000  0.25050000  1.0
  Mn4+  Mn181  1  0.49830000  0.66740000  0.99950000  1.0
  Mn4+  Mn182  1  0.75170000  0.58260000  0.99950000  1.0
  Mn4+  Mn183  1  0.75170000  0.66740000  0.25050000  1.0
  Mn4+  Mn184  1  0.91440000  0.99580000  0.74710000  1.0
  Mn4+  Mn185  1  0.91440000  0.75420000  0.00290000  1.0
  Mn4+  Mn186  1  0.83560000  0.99580000  0.00290000  1.0
  Mn4+  Mn187  1  0.83560000  0.75420000  0.74710000  1.0
  Mn4+  Mn188  1  0.08560000  0.00420000  0.25290000  1.0
  Mn4+  Mn189  1  0.08560000  0.24580000  0.99710000  1.0
  Mn4+  Mn190  1  0.16440000  0.00420000  0.99710000  1.0
  Mn4+  Mn191  1  0.16440000  0.24580000  0.25290000  1.0
  Mn4+  Mn192  1  0.91440000  0.49580000  0.24710000  1.0
  Mn4+  Mn193  1  0.91440000  0.25420000  0.50290000  1.0
  Mn4+  Mn194  1  0.83560000  0.49580000  0.50290000  1.0
  Mn4+  Mn195  1  0.83560000  0.25420000  0.24710000  1.0
  Mn4+  Mn196  1  0.08560000  0.50420000  0.75290000  1.0
  Mn4+  Mn197  1  0.08560000  0.74580000  0.49710000  1.0
  Mn4+  Mn198  1  0.16440000  0.50420000  0.49710000  1.0
  Mn4+  Mn199  1  0.16440000  0.74580000  0.75290000  1.0
  Mn4+  Mn200  1  0.41440000  0.99580000  0.24710000  1.0
  Mn4+  Mn201  1  0.41440000  0.75420000  0.50290000  1.0
  Mn4+  Mn202  1  0.33560000  0.99580000  0.50290000  1.0
  Mn4+  Mn203  1  0.33560000  0.75420000  0.24710000  1.0
  Mn4+  Mn204  1  0.58560000  0.00420000  0.75290000  1.0
  Mn4+  Mn205  1  0.58560000  0.24580000  0.49710000  1.0
  Mn4+  Mn206  1  0.66440000  0.00420000  0.49710000  1.0
  Mn4+  Mn207  1  0.66440000  0.24580000  0.75290000  1.0
  Mn4+  Mn208  1  0.41440000  0.49580000  0.74710000  1.0
  Mn4+  Mn209  1  0.41440000  0.25420000  0.00290000  1.0
  Mn4+  Mn210  1  0.33560000  0.49580000  0.00290000  1.0
  Mn4+  Mn211  1  0.33560000  0.25420000  0.74710000  1.0
  Mn4+  Mn212  1  0.58560000  0.50420000  0.25290000  1.0
  Mn4+  Mn213  1  0.58560000  0.74580000  0.99710000  1.0
  Mn4+  Mn214  1  0.66440000  0.50420000  0.99710000  1.0
  Mn4+  Mn215  1  0.66440000  0.74580000  0.25290000  1.0
  O2-  O216  1  0.92440000  0.91850000  0.74150000  1.0
  O2-  O217  1  0.92440000  0.83150000  0.00850000  1.0
  O2-  O218  1  0.82560000  0.91850000  0.00850000  1.0
  O2-  O219  1  0.82560000  0.83150000  0.74150000  1.0
  O2-  O220  1  0.07560000  0.08150000  0.25850000  1.0
  O2-  O221  1  0.07560000  0.16850000  0.99150000  1.0
  O2-  O222  1  0.17440000  0.08150000  0.99150000  1.0
  O2-  O223  1  0.17440000  0.16850000  0.25850000  1.0
  O2-  O224  1  0.92440000  0.41850000  0.24150000  1.0
  O2-  O225  1  0.92440000  0.33150000  0.50850000  1.0
  O2-  O226  1  0.82560000  0.41850000  0.50850000  1.0
  O2-  O227  1  0.82560000  0.33150000  0.24150000  1.0
  O2-  O228  1  0.07560000  0.58150000  0.75850000  1.0
  O2-  O229  1  0.07560000  0.66850000  0.49150000  1.0
  O2-  O230  1  0.17440000  0.58150000  0.49150000  1.0
  O2-  O231  1  0.17440000  0.66850000  0.75850000  1.0
  O2-  O232  1  0.42440000  0.91850000  0.24150000  1.0
  O2-  O233  1  0.42440000  0.83150000  0.50850000  1.0
  O2-  O234  1  0.32560000  0.91850000  0.50850000  1.0
  O2-  O235  1  0.32560000  0.83150000  0.24150000  1.0
  O2-  O236  1  0.57560000  0.08150000  0.75850000  1.0
  O2-  O237  1  0.57560000  0.16850000  0.49150000  1.0
  O2-  O238  1  0.67440000  0.08150000  0.49150000  1.0
  O2-  O239  1  0.67440000  0.16850000  0.75850000  1.0
  O2-  O240  1  0.42440000  0.41850000  0.74150000  1.0
  O2-  O241  1  0.42440000  0.33150000  0.00850000  1.0
  O2-  O242  1  0.32560000  0.41850000  0.00850000  1.0
  O2-  O243  1  0.32560000  0.33150000  0.74150000  1.0
  O2-  O244  1  0.57560000  0.58150000  0.25850000  1.0
  O2-  O245  1  0.57560000  0.66850000  0.99150000  1.0
  O2-  O246  1  0.67440000  0.58150000  0.99150000  1.0
  O2-  O247  1  0.67440000  0.66850000  0.25850000  1.0
  O2-  O248  1  0.82820000  0.75490000  0.51820000  1.0
  O2-  O249  1  0.82820000  0.99510000  0.23180000  1.0
  O2-  O250  1  0.92180000  0.75490000  0.23180000  1.0
  O2-  O251  1  0.92180000  0.99510000  0.51820000  1.0
  O2-  O252  1  0.17180000  0.24510000  0.48180000  1.0
  O2-  O253  1  0.17180000  0.00490000  0.76820000  1.0
  O2-  O254  1  0.07820000  0.24510000  0.76820000  1.0
  O2-  O255  1  0.07820000  0.00490000  0.48180000  1.0
  O2-  O256  1  0.82820000  0.25490000  0.01820000  1.0
  O2-  O257  1  0.82820000  0.49510000  0.73180000  1.0
  O2-  O258  1  0.92180000  0.25490000  0.73180000  1.0
  O2-  O259  1  0.92180000  0.49510000  0.01820000  1.0
  O2-  O260  1  0.17180000  0.74510000  0.98180000  1.0
  O2-  O261  1  0.17180000  0.50490000  0.26820000  1.0
  O2-  O262  1  0.07820000  0.74510000  0.26820000  1.0
  O2-  O263  1  0.07820000  0.50490000  0.98180000  1.0
  O2-  O264  1  0.32820000  0.75490000  0.01820000  1.0
  O2-  O265  1  0.32820000  0.99510000  0.73180000  1.0
  O2-  O266  1  0.42180000  0.75490000  0.73180000  1.0
  O2-  O267  1  0.42180000  0.99510000  0.01820000  1.0
  O2-  O268  1  0.67180000  0.24510000  0.98180000  1.0
  O2-  O269  1  0.67180000  0.00490000  0.26820000  1.0
  O2-  O270  1  0.57820000  0.24510000  0.26820000  1.0
  O2-  O271  1  0.57820000  0.00490000  0.98180000  1.0
  O2-  O272  1  0.32820000  0.25490000  0.51820000  1.0
  O2-  O273  1  0.32820000  0.49510000  0.23180000  1.0
  O2-  O274  1  0.42180000  0.25490000  0.23180000  1.0
  O2-  O275  1  0.42180000  0.49510000  0.51820000  1.0
  O2-  O276  1  0.67180000  0.74510000  0.48180000  1.0
  O2-  O277  1  0.67180000  0.50490000  0.76820000  1.0
  O2-  O278  1  0.57820000  0.74510000  0.76820000  1.0
  O2-  O279  1  0.57820000  0.50490000  0.48180000  1.0
  O2-  O280  1  0.82850000  0.08120000  0.52440000  1.0
  O2-  O281  1  0.82850000  0.66880000  0.22560000  1.0
  O2-  O282  1  0.92150000  0.08120000  0.22560000  1.0
  O2-  O283  1  0.92150000  0.66880000  0.52440000  1.0
  O2-  O284  1  0.17150000  0.91880000  0.47560000  1.0
  O2-  O285  1  0.17150000  0.33120000  0.77440000  1.0
  O2-  O286  1  0.07850000  0.91880000  0.77440000  1.0
  O2-  O287  1  0.07850000  0.33120000  0.47560000  1.0
  O2-  O288  1  0.82850000  0.58120000  0.02440000  1.0
  O2-  O289  1  0.82850000  0.16880000  0.72560000  1.0
  O2-  O290  1  0.92150000  0.58120000  0.72560000  1.0
  O2-  O291  1  0.92150000  0.16880000  0.02440000  1.0
  O2-  O292  1  0.17150000  0.41880000  0.97560000  1.0
  O2-  O293  1  0.17150000  0.83120000  0.27440000  1.0
  O2-  O294  1  0.07850000  0.41880000  0.27440000  1.0
  O2-  O295  1  0.07850000  0.83120000  0.97560000  1.0
  O2-  O296  1  0.32850000  0.08120000  0.02440000  1.0
  O2-  O297  1  0.32850000  0.66880000  0.72560000  1.0
  O2-  O298  1  0.42150000  0.08120000  0.72560000  1.0
  O2-  O299  1  0.42150000  0.66880000  0.02440000  1.0
  O2-  O300  1  0.67150000  0.91880000  0.97560000  1.0
  O2-  O301  1  0.67150000  0.33120000  0.27440000  1.0
  O2-  O302  1  0.57850000  0.91880000  0.27440000  1.0
  O2-  O303  1  0.57850000  0.33120000  0.97560000  1.0
  O2-  O304  1  0.32850000  0.58120000  0.52440000  1.0
  O2-  O305  1  0.32850000  0.16880000  0.22560000  1.0
  O2-  O306  1  0.42150000  0.58120000  0.22560000  1.0
  O2-  O307  1  0.42150000  0.16880000  0.52440000  1.0
  O2-  O308  1  0.67150000  0.41880000  0.47560000  1.0
  O2-  O309  1  0.67150000  0.83120000  0.77440000  1.0
  O2-  O310  1  0.57850000  0.41880000  0.77440000  1.0
  O2-  O311  1  0.57850000  0.83120000  0.47560000  1.0
  O2-  O312  1  0.00260000  0.92210000  0.51810000  1.0
  O2-  O313  1  0.00260000  0.82790000  0.23190000  1.0
  O2-  O314  1  0.74740000  0.92210000  0.23190000  1.0
  O2-  O315  1  0.74740000  0.82790000  0.51810000  1.0
  O2-  O316  1  0.99740000  0.07790000  0.48190000  1.0
  O2-  O317  1  0.99740000  0.17210000  0.76810000  1.0
  O2-  O318  1  0.25260000  0.07790000  0.76810000  1.0
  O2-  O319  1  0.25260000  0.17210000  0.48190000  1.0
  O2-  O320  1  0.00260000  0.42210000  0.01810000  1.0
  O2-  O321  1  0.00260000  0.32790000  0.73190000  1.0
  O2-  O322  1  0.74740000  0.42210000  0.73190000  1.0
  O2-  O323  1  0.74740000  0.32790000  0.01810000  1.0
  O2-  O324  1  0.99740000  0.57790000  0.98190000  1.0
  O2-  O325  1  0.99740000  0.67210000  0.26810000  1.0
  O2-  O326  1  0.25260000  0.57790000  0.26810000  1.0
  O2-  O327  1  0.25260000  0.67210000  0.98190000  1.0
  O2-  O328  1  0.50260000  0.92210000  0.01810000  1.0
  O2-  O329  1  0.50260000  0.82790000  0.73190000  1.0
  O2-  O330  1  0.24740000  0.92210000  0.73190000  1.0
  O2-  O331  1  0.24740000  0.82790000  0.01810000  1.0
  O2-  O332  1  0.49740000  0.07790000  0.98190000  1.0
  O2-  O333  1  0.49740000  0.17210000  0.26810000  1.0
  O2-  O334  1  0.75260000  0.07790000  0.26810000  1.0
  O2-  O335  1  0.75260000  0.17210000  0.98190000  1.0
  O2-  O336  1  0.50260000  0.42210000  0.51810000  1.0
  O2-  O337  1  0.50260000  0.32790000  0.23190000  1.0
  O2-  O338  1  0.24740000  0.42210000  0.23190000  1.0
  O2-  O339  1  0.24740000  0.32790000  0.51810000  1.0
  O2-  O340  1  0.49740000  0.57790000  0.48190000  1.0
  O2-  O341  1  0.49740000  0.67210000  0.76810000  1.0
  O2-  O342  1  0.75260000  0.57790000  0.76810000  1.0
  O2-  O343  1  0.75260000  0.67210000  0.48190000  1.0
  O2-  O344  1  0.75350000  0.75820000  0.75130000  1.0
  O2-  O345  1  0.75350000  0.99180000  0.99870000  1.0
  O2-  O346  1  0.99650000  0.75820000  0.99870000  1.0
  O2-  O347  1  0.99650000  0.99180000  0.75130000  1.0
  O2-  O348  1  0.24650000  0.24180000  0.24870000  1.0
  O2-  O349  1  0.24650000  0.00820000  0.00130000  1.0
  O2-  O350  1  0.00350000  0.24180000  0.00130000  1.0
  O2-  O351  1  0.00350000  0.00820000  0.24870000  1.0
  O2-  O352  1  0.75350000  0.25820000  0.25130000  1.0
  O2-  O353  1  0.75350000  0.49180000  0.49870000  1.0
  O2-  O354  1  0.99650000  0.25820000  0.49870000  1.0
  O2-  O355  1  0.99650000  0.49180000  0.25130000  1.0
  O2-  O356  1  0.24650000  0.74180000  0.74870000  1.0
  O2-  O357  1  0.24650000  0.50820000  0.50130000  1.0
  O2-  O358  1  0.00350000  0.74180000  0.50130000  1.0
  O2-  O359  1  0.00350000  0.50820000  0.74870000  1.0
  O2-  O360  1  0.25350000  0.75820000  0.25130000  1.0
  O2-  O361  1  0.25350000  0.99180000  0.49870000  1.0
  O2-  O362  1  0.49650000  0.75820000  0.49870000  1.0
  O2-  O363  1  0.49650000  0.99180000  0.25130000  1.0
  O2-  O364  1  0.74650000  0.24180000  0.74870000  1.0
  O2-  O365  1  0.74650000  0.00820000  0.50130000  1.0
  O2-  O366  1  0.50350000  0.24180000  0.50130000  1.0
  O2-  O367  1  0.50350000  0.00820000  0.74870000  1.0
  O2-  O368  1  0.25350000  0.25820000  0.75130000  1.0
  O2-  O369  1  0.25350000  0.49180000  0.99870000  1.0
  O2-  O370  1  0.49650000  0.25820000  0.99870000  1.0
  O2-  O371  1  0.49650000  0.49180000  0.75130000  1.0
  O2-  O372  1  0.74650000  0.74180000  0.24870000  1.0
  O2-  O373  1  0.74650000  0.50820000  0.00130000  1.0
  O2-  O374  1  0.50350000  0.74180000  0.00130000  1.0
  O2-  O375  1  0.50350000  0.50820000  0.24870000  1.0
  O2-  O376  1  0.00300000  0.83970000  0.76300000  1.0
  O2-  O377  1  0.00300000  0.91030000  0.98700000  1.0
  O2-  O378  1  0.74700000  0.83970000  0.98700000  1.0
  O2-  O379  1  0.74700000  0.91030000  0.76300000  1.0
  O2-  O380  1  0.99700000  0.16030000  0.23700000  1.0
  O2-  O381  1  0.99700000  0.08970000  0.01300000  1.0
  O2-  O382  1  0.25300000  0.16030000  0.01300000  1.0
  O2-  O383  1  0.25300000  0.08970000  0.23700000  1.0
  O2-  O384  1  0.00300000  0.33970000  0.26300000  1.0
  O2-  O385  1  0.00300000  0.41030000  0.48700000  1.0
  O2-  O386  1  0.74700000  0.33970000  0.48700000  1.0
  O2-  O387  1  0.74700000  0.41030000  0.26300000  1.0
  O2-  O388  1  0.99700000  0.66030000  0.73700000  1.0
  O2-  O389  1  0.99700000  0.58970000  0.51300000  1.0
  O2-  O390  1  0.25300000  0.66030000  0.51300000  1.0
  O2-  O391  1  0.25300000  0.58970000  0.73700000  1.0
  O2-  O392  1  0.50300000  0.83970000  0.26300000  1.0
  O2-  O393  1  0.50300000  0.91030000  0.48700000  1.0
  O2-  O394  1  0.24700000  0.83970000  0.48700000  1.0
  O2-  O395  1  0.24700000  0.91030000  0.26300000  1.0
  O2-  O396  1  0.49700000  0.16030000  0.73700000  1.0
  O2-  O397  1  0.49700000  0.08970000  0.51300000  1.0
  O2-  O398  1  0.75300000  0.16030000  0.51300000  1.0
  O2-  O399  1  0.75300000  0.08970000  0.73700000  1.0
  O2-  O400  1  0.50300000  0.33970000  0.76300000  1.0
  O2-  O401  1  0.50300000  0.41030000  0.98700000  1.0
  O2-  O402  1  0.24700000  0.33970000  0.98700000  1.0
  O2-  O403  1  0.24700000  0.41030000  0.76300000  1.0
  O2-  O404  1  0.49700000  0.66030000  0.23700000  1.0
  O2-  O405  1  0.49700000  0.58970000  0.01300000  1.0
  O2-  O406  1  0.75300000  0.66030000  0.01300000  1.0
  O2-  O407  1  0.75300000  0.58970000  0.23700000  1.0
  O2-  O408  1  0.91270000  0.07380000  0.76300000  1.0
  O2-  O409  1  0.91270000  0.67620000  0.98700000  1.0
  O2-  O410  1  0.83730000  0.07380000  0.98700000  1.0
  O2-  O411  1  0.83730000  0.67620000  0.76300000  1.0
  O2-  O412  1  0.08730000  0.92620000  0.23700000  1.0
  O2-  O413  1  0.08730000  0.32380000  0.01300000  1.0
  O2-  O414  1  0.16270000  0.92620000  0.01300000  1.0
  O2-  O415  1  0.16270000  0.32380000  0.23700000  1.0
  O2-  O416  1  0.91270000  0.57380000  0.26300000  1.0
  O2-  O417  1  0.91270000  0.17620000  0.48700000  1.0
  O2-  O418  1  0.83730000  0.57380000  0.48700000  1.0
  O2-  O419  1  0.83730000  0.17620000  0.26300000  1.0
  O2-  O420  1  0.08730000  0.42620000  0.73700000  1.0
  O2-  O421  1  0.08730000  0.82380000  0.51300000  1.0
  O2-  O422  1  0.16270000  0.42620000  0.51300000  1.0
  O2-  O423  1  0.16270000  0.82380000  0.73700000  1.0
  O2-  O424  1  0.41270000  0.07380000  0.26300000  1.0
  O2-  O425  1  0.41270000  0.67620000  0.48700000  1.0
  O2-  O426  1  0.33730000  0.07380000  0.48700000  1.0
  O2-  O427  1  0.33730000  0.67620000  0.26300000  1.0
  O2-  O428  1  0.58730000  0.92620000  0.73700000  1.0
  O2-  O429  1  0.58730000  0.32380000  0.51300000  1.0
  O2-  O430  1  0.66270000  0.92620000  0.51300000  1.0
  O2-  O431  1  0.66270000  0.32380000  0.73700000  1.0
  O2-  O432  1  0.41270000  0.57380000  0.76300000  1.0
  O2-  O433  1  0.41270000  0.17620000  0.98700000  1.0
  O2-  O434  1  0.33730000  0.57380000  0.98700000  1.0
  O2-  O435  1  0.33730000  0.17620000  0.76300000  1.0
  O2-  O436  1  0.58730000  0.42620000  0.23700000  1.0
  O2-  O437  1  0.58730000  0.82380000  0.01300000  1.0
  O2-  O438  1  0.66270000  0.42620000  0.01300000  1.0
  O2-  O439  1  0.66270000  0.82380000  0.23700000  1.0
  O2-  O440  1  0.84080000  0.99670000  0.77210000  1.0
  O2-  O441  1  0.84080000  0.75330000  0.97790000  1.0
  O2-  O442  1  0.90920000  0.99670000  0.97790000  1.0
  O2-  O443  1  0.90920000  0.75330000  0.77210000  1.0
  O2-  O444  1  0.15920000  0.00330000  0.22790000  1.0
  O2-  O445  1  0.15920000  0.24670000  0.02210000  1.0
  O2-  O446  1  0.09080000  0.00330000  0.02210000  1.0
  O2-  O447  1  0.09080000  0.24670000  0.22790000  1.0
  O2-  O448  1  0.84080000  0.49670000  0.27210000  1.0
  O2-  O449  1  0.84080000  0.25330000  0.47790000  1.0
  O2-  O450  1  0.90920000  0.49670000  0.47790000  1.0
  O2-  O451  1  0.90920000  0.25330000  0.27210000  1.0
  O2-  O452  1  0.15920000  0.50330000  0.72790000  1.0
  O2-  O453  1  0.15920000  0.74670000  0.52210000  1.0
  O2-  O454  1  0.09080000  0.50330000  0.52210000  1.0
  O2-  O455  1  0.09080000  0.74670000  0.72790000  1.0
  O2-  O456  1  0.34080000  0.99670000  0.27210000  1.0
  O2-  O457  1  0.34080000  0.75330000  0.47790000  1.0
  O2-  O458  1  0.40920000  0.99670000  0.47790000  1.0
  O2-  O459  1  0.40920000  0.75330000  0.27210000  1.0
  O2-  O460  1  0.65920000  0.00330000  0.72790000  1.0
  O2-  O461  1  0.65920000  0.24670000  0.52210000  1.0
  O2-  O462  1  0.59080000  0.00330000  0.52210000  1.0
  O2-  O463  1  0.59080000  0.24670000  0.72790000  1.0
  O2-  O464  1  0.34080000  0.49670000  0.77210000  1.0
  O2-  O465  1  0.34080000  0.25330000  0.97790000  1.0
  O2-  O466  1  0.40920000  0.49670000  0.97790000  1.0
  O2-  O467  1  0.40920000  0.25330000  0.77210000  1.0
  O2-  O468  1  0.65920000  0.50330000  0.22790000  1.0
  O2-  O469  1  0.65920000  0.74670000  0.02210000  1.0
  O2-  O470  1  0.59080000  0.50330000  0.02210000  1.0
  O2-  O471  1  0.59080000  0.74670000  0.22790000  1.0
  O2-  O472  1  0.83430000  0.91100000  0.48500000  1.0
  O2-  O473  1  0.83430000  0.83900000  0.26500000  1.0
  O2-  O474  1  0.91570000  0.91100000  0.26500000  1.0
  O2-  O475  1  0.91570000  0.83900000  0.48500000  1.0
  O2-  O476  1  0.16570000  0.08900000  0.51500000  1.0
  O2-  O477  1  0.16570000  0.16100000  0.73500000  1.0
  O2-  O478  1  0.08430000  0.08900000  0.73500000  1.0
  O2-  O479  1  0.08430000  0.16100000  0.51500000  1.0
  O2-  O480  1  0.83430000  0.41100000  0.98500000  1.0
  O2-  O481  1  0.83430000  0.33900000  0.76500000  1.0
  O2-  O482  1  0.91570000  0.41100000  0.76500000  1.0
  O2-  O483  1  0.91570000  0.33900000  0.98500000  1.0
  O2-  O484  1  0.16570000  0.58900000  0.01500000  1.0
  O2-  O485  1  0.16570000  0.66100000  0.23500000  1.0
  O2-  O486  1  0.08430000  0.58900000  0.23500000  1.0
  O2-  O487  1  0.08430000  0.66100000  0.01500000  1.0
  O2-  O488  1  0.33430000  0.91100000  0.98500000  1.0
  O2-  O489  1  0.33430000  0.83900000  0.76500000  1.0
  O2-  O490  1  0.41570000  0.91100000  0.76500000  1.0
  O2-  O491  1  0.41570000  0.83900000  0.98500000  1.0
  O2-  O492  1  0.66570000  0.08900000  0.01500000  1.0
  O2-  O493  1  0.66570000  0.16100000  0.23500000  1.0
  O2-  O494  1  0.58430000  0.08900000  0.23500000  1.0
  O2-  O495  1  0.58430000  0.16100000  0.01500000  1.0
  O2-  O496  1  0.33430000  0.41100000  0.48500000  1.0
  O2-  O497  1  0.33430000  0.33900000  0.26500000  1.0
  O2-  O498  1  0.41570000  0.41100000  0.26500000  1.0
  O2-  O499  1  0.41570000  0.33900000  0.48500000  1.0
  O2-  O500  1  0.66570000  0.58900000  0.51500000  1.0
  O2-  O501  1  0.66570000  0.66100000  0.73500000  1.0
  O2-  O502  1  0.58430000  0.58900000  0.73500000  1.0
  O2-  O503  1  0.58430000  0.66100000  0.51500000  1.0
