# generated using pymatgen
data_LiMnO4
_symmetry_space_group_name_H-M   'P 1'
_cell_length_a   5.51402000
_cell_length_b   8.39754000
_cell_length_c   6.35911000
_cell_angle_alpha   90.00000000
_cell_angle_beta   90.00000000
_cell_angle_gamma   90.00000000
_symmetry_Int_Tables_number   1
_chemical_formula_structural   LiMnO4
_chemical_formula_sum   'Li4 Mn4 O16'
_cell_volume   294.45352359
_cell_formula_units_Z   4
loop_
 _symmetry_equiv_pos_site_id
 _symmetry_equiv_pos_as_xyz
  1  'x, y, z'
loop_
 _atom_type_symbol
 _atom_type_oxidation_number
  Li+  1.0
  Mn7+  7.0
  O2-  -2.0
loop_
 _atom_site_type_symbol
 _atom_site_label
 _atom_site_symmetry_multiplicity
 _atom_site_fract_x
 _atom_site_fract_y
 _atom_site_fract_z
 _atom_site_occupancy
  Li+  Li0  1  0.00000000  0.00000000  0.50000000  1.0
  Li+  Li1  1  0.00000000  0.00000000  0.00000000  1.0
  Li+  Li2  1  0.50000000  0.50000000  0.50000000  1.0
  Li+  Li3  1  0.50000000  0.50000000  0.00000000  1.0
  Mn7+  Mn4  1  0.00000000  0.36010000  0.25000000  1.0
  Mn7+  Mn5  1  0.00000000  0.63990000  0.75000000  1.0
  Mn7+  Mn6  1  0.50000000  0.86010000  0.25000000  1.0
  Mn7+  Mn7  1  0.50000000  0.13990000  0.75000000  1.0
  O2-  O8  1  0.00000000  0.24960000  0.45600000  1.0
  O2-  O9  1  0.00000000  0.75040000  0.54400000  1.0
  O2-  O10  1  0.00000000  0.24960000  0.04400000  1.0
  O2-  O11  1  0.00000000  0.75040000  0.95600000  1.0
  O2-  O12  1  0.50000000  0.74960000  0.45600000  1.0
  O2-  O13  1  0.50000000  0.25040000  0.54400000  1.0
  O2-  O14  1  0.50000000  0.74960000  0.04400000  1.0
  O2-  O15  1  0.50000000  0.25040000  0.95600000  1.0
  O2-  O16  1  0.74380000  0.97190000  0.25000000  1.0
  O2-  O17  1  0.74380000  0.02810000  0.75000000  1.0
  O2-  O18  1  0.25620000  0.02810000  0.75000000  1.0
  O2-  O19  1  0.25620000  0.97190000  0.25000000  1.0
  O2-  O20  1  0.24380000  0.47190000  0.25000000  1.0
  O2-  O21  1  0.24380000  0.52810000  0.75000000  1.0
  O2-  O22  1  0.75620000  0.52810000  0.75000000  1.0
  O2-  O23  1  0.75620000  0.47190000  0.25000000  1.0
