# generated using pymatgen
data_LiO3
_symmetry_space_group_name_H-M   'P 1'
_cell_length_a   3.05300000
_cell_length_b   4.93100000
_cell_length_c   5.19700000
_cell_angle_alpha   90.00000000
_cell_angle_beta   90.00000000
_cell_angle_gamma   90.00000000
_symmetry_Int_Tables_number   1
_chemical_formula_structural   LiO3
_chemical_formula_sum   'Li2 O6'
_cell_volume   78.23742057
_cell_formula_units_Z   2
loop_
 _symmetry_equiv_pos_site_id
 _symmetry_equiv_pos_as_xyz
  1  'x, y, z'
loop_
 _atom_type_symbol
 _atom_type_oxidation_number
  Li+  1.0
  O0.333-  -0.333
loop_
 _atom_site_type_symbol
 _atom_site_label
 _atom_site_symmetry_multiplicity
 _atom_site_fract_x
 _atom_site_fract_y
 _atom_site_fract_z
 _atom_site_occupancy
  Li+  Li0  1  0.00000000  0.00000000  0.51390000  1.0
  Li+  Li1  1  0.50000000  0.50000000  0.01390000  1.0
  O0.333-  O2  1  0.00000000  0.00000000  0.02210000  1.0
  O0.333-  O3  1  0.50000000  0.50000000  0.52210000  1.0
  O0.333-  O4  1  0.00000000  0.76970000  0.87210000  1.0
  O0.333-  O5  1  0.00000000  0.23030000  0.87210000  1.0
  O0.333-  O6  1  0.50000000  0.26970000  0.37210000  1.0
  O0.333-  O7  1  0.50000000  0.73030000  0.37210000  1.0
