# generated using pymatgen
data_LiTi2O4
_symmetry_space_group_name_H-M   'P 1'
_cell_length_a   8.30080000
_cell_length_b   3.96648000
_cell_length_c   9.63826000
_cell_angle_alpha   90.00002000
_cell_angle_beta   89.99999000
_cell_angle_gamma   90.00069000
_symmetry_Int_Tables_number   1
_chemical_formula_structural   LiTi2O4
_chemical_formula_sum   'Li4 Ti8 O16'
_cell_volume   317.33929781
_cell_formula_units_Z   4
loop_
 _symmetry_equiv_pos_site_id
 _symmetry_equiv_pos_as_xyz
  1  'x, y, z'
loop_
 _atom_type_symbol
 _atom_type_oxidation_number
  Li+  1.0
  Ti3.5+  3.5
  O2-  -2.0
loop_
 _atom_site_type_symbol
 _atom_site_label
 _atom_site_symmetry_multiplicity
 _atom_site_fract_x
 _atom_site_fract_y
 _atom_site_fract_z
 _atom_site_occupancy
  Li+  Li0  1  0.99786000  0.00001000  0.01440000  1.0
  Li+  Li1  1  0.25214000  0.50000000  0.51441000  1.0
  Li+  Li2  1  0.49795000  0.50002000  0.23509000  1.0
  Li+  Li3  1  0.75205000  0.99999000  0.73509000  1.0
  Ti3.5+  Ti4  1  0.99421000  0.99996000  0.49989000  1.0
  Ti3.5+  Ti5  1  0.25579000  0.50006000  0.99988000  1.0
  Ti3.5+  Ti6  1  0.49413000  0.49997000  0.75021000  1.0
  Ti3.5+  Ti7  1  0.75587000  0.00002000  0.25021000  1.0
  Ti3.5+  Ti8  1  0.51173000  0.00000000  0.49197000  1.0
  Ti3.5+  Ti9  1  0.73827000  0.50000000  0.99197000  1.0
  Ti3.5+  Ti10  1  0.01172000  0.49998000  0.75806000  1.0
  Ti3.5+  Ti11  1  0.23828000  0.00002000  0.25806000  1.0
  O2-  O12  1  0.00742000  0.00003000  0.28151000  1.0
  O2-  O13  1  0.49457000  0.00002000  0.28486000  1.0
  O2-  O14  1  0.24258000  0.49995000  0.78151000  1.0
  O2-  O15  1  0.75543000  0.49998000  0.78486000  1.0
  O2-  O16  1  0.01852000  0.49998000  0.54645000  1.0
  O2-  O17  1  0.48459000  0.49999000  0.52013000  1.0
  O2-  O18  1  0.23148000  0.00003000  0.04645000  1.0
  O2-  O19  1  0.76541000  0.99999000  0.02013000  1.0
  O2-  O20  1  0.25553000  0.00001000  0.46515000  1.0
  O2-  O21  1  0.74264000  0.00000000  0.46867000  1.0
  O2-  O22  1  0.99447000  0.49999000  0.96515000  1.0
  O2-  O23  1  0.50736000  0.50001000  0.96867000  1.0
  O2-  O24  1  0.26543000  0.50002000  0.23000000  1.0
  O2-  O25  1  0.73161000  0.50002000  0.20357000  1.0
  O2-  O26  1  0.98457000  0.99998000  0.73000000  1.0
  O2-  O27  1  0.51839000  0.99999000  0.70357000  1.0
