# generated using pymatgen
data_LiTi2O4
_symmetry_space_group_name_H-M   'P 1'
_cell_length_a   8.17830000
_cell_length_b   4.02927000
_cell_length_c   9.59784000
_cell_angle_alpha   90.00000000
_cell_angle_beta   90.00000000
_cell_angle_gamma   90.00000000
_symmetry_Int_Tables_number   1
_chemical_formula_structural   LiTi2O4
_chemical_formula_sum   'Li4 Ti8 O16'
_cell_volume   316.27357930
_cell_formula_units_Z   4
loop_
 _symmetry_equiv_pos_site_id
 _symmetry_equiv_pos_as_xyz
  1  'x, y, z'
loop_
 _atom_type_symbol
 _atom_type_oxidation_number
  Li+  1.0
  Ti3.5+  3.5
  O2-  -2.0
loop_
 _atom_site_type_symbol
 _atom_site_label
 _atom_site_symmetry_multiplicity
 _atom_site_fract_x
 _atom_site_fract_y
 _atom_site_fract_z
 _atom_site_occupancy
  Li+  Li0  1  0.00212000  0.00000000  0.99186000  1.0
  Li+  Li1  1  0.24788000  0.50000000  0.49186000  1.0
  Li+  Li2  1  0.99324000  0.50000000  0.24621000  1.0
  Li+  Li3  1  0.25676000  0.00000000  0.74621000  1.0
  Ti3.5+  Ti4  1  0.97828000  0.00000000  0.50784000  1.0
  Ti3.5+  Ti5  1  0.50353000  0.00000000  0.49261000  1.0
  Ti3.5+  Ti6  1  0.27172000  0.50000000  0.00784000  1.0
  Ti3.5+  Ti7  1  0.74647000  0.50000000  0.99261000  1.0
  Ti3.5+  Ti8  1  0.00407000  0.50000000  0.75516000  1.0
  Ti3.5+  Ti9  1  0.51466000  0.50000000  0.74527000  1.0
  Ti3.5+  Ti10  1  0.24594000  0.00000000  0.25516000  1.0
  Ti3.5+  Ti11  1  0.73534000  0.00000000  0.24527000  1.0
  O2-  O12  1  0.99943000  0.00000000  0.28283000  1.0
  O2-  O13  1  0.48300000  0.00000000  0.28631000  1.0
  O2-  O14  1  0.25057000  0.50000000  0.78283000  1.0
  O2-  O15  1  0.76700000  0.50000000  0.78631000  1.0
  O2-  O16  1  0.01549000  0.50000000  0.54869000  1.0
  O2-  O17  1  0.48464000  0.50000000  0.52162000  1.0
  O2-  O18  1  0.23451000  0.00000000  0.04869000  1.0
  O2-  O19  1  0.76536000  0.00000000  0.02161000  1.0
  O2-  O20  1  0.24656000  0.00000000  0.46966000  1.0
  O2-  O21  1  0.73774000  0.00000000  0.46453000  1.0
  O2-  O22  1  0.00344000  0.50000000  0.96965000  1.0
  O2-  O23  1  0.51226000  0.50000000  0.96454000  1.0
  O2-  O24  1  0.23234000  0.50000000  0.23323000  1.0
  O2-  O25  1  0.75936000  0.50000000  0.20418000  1.0
  O2-  O26  1  0.01766000  0.00000000  0.73323000  1.0
  O2-  O27  1  0.49064000  0.00000000  0.70418000  1.0
