# generated using pymatgen
data_LiTi2O4
_symmetry_space_group_name_H-M   'P 1'
_cell_length_a   12.45100000
_cell_length_b   3.81680000
_cell_length_c   6.45600000
_cell_angle_alpha   90.00000000
_cell_angle_beta   107.78000000
_cell_angle_gamma   90.00000000
_symmetry_Int_Tables_number   1
_chemical_formula_structural   LiTi2O4
_chemical_formula_sum   'Li4 Ti8 O16'
_cell_volume   292.15395780
_cell_formula_units_Z   4
loop_
 _symmetry_equiv_pos_site_id
 _symmetry_equiv_pos_as_xyz
  1  'x, y, z'
loop_
 _atom_type_symbol
 _atom_type_oxidation_number
  Li+  1.0
  Ti3.5+  3.5
  O2-  -2.0
loop_
 _atom_site_type_symbol
 _atom_site_label
 _atom_site_symmetry_multiplicity
 _atom_site_fract_x
 _atom_site_fract_y
 _atom_site_fract_z
 _atom_site_occupancy
  Li+  Li0  1  0.07200000  0.00000000  0.33100000  1.0
  Li+  Li1  1  0.92800000  0.00000000  0.66900000  1.0
  Li+  Li2  1  0.57200000  0.50000000  0.33100000  1.0
  Li+  Li3  1  0.42800000  0.50000000  0.66900000  1.0
  Ti3.5+  Ti4  1  0.68720000  0.00000000  0.30600000  1.0
  Ti3.5+  Ti5  1  0.31280000  0.00000000  0.69400000  1.0
  Ti3.5+  Ti6  1  0.18720000  0.50000000  0.30600000  1.0
  Ti3.5+  Ti7  1  0.81280000  0.50000000  0.69400000  1.0
  Ti3.5+  Ti8  1  0.60090000  0.00000000  0.68200000  1.0
  Ti3.5+  Ti9  1  0.39910000  0.00000000  0.31800000  1.0
  Ti3.5+  Ti10  1  0.10090000  0.50000000  0.68200000  1.0
  Ti3.5+  Ti11  1  0.89910000  0.50000000  0.31800000  1.0
  O2-  O12  1  0.64920000  0.00000000  0.99800000  1.0
  O2-  O13  1  0.35080000  0.00000000  0.00200000  1.0
  O2-  O14  1  0.14920000  0.50000000  0.99800000  1.0
  O2-  O15  1  0.85080000  0.50000000  0.00200000  1.0
  O2-  O16  1  0.76750000  0.00000000  0.66300000  1.0
  O2-  O17  1  0.23250000  0.00000000  0.33700000  1.0
  O2-  O18  1  0.26750000  0.50000000  0.66300000  1.0
  O2-  O19  1  0.73250000  0.50000000  0.33700000  1.0
  O2-  O20  1  0.87300000  0.00000000  0.30300000  1.0
  O2-  O21  1  0.12700000  0.00000000  0.69700000  1.0
  O2-  O22  1  0.37300000  0.50000000  0.30300000  1.0
  O2-  O23  1  0.62700000  0.50000000  0.69700000  1.0
  O2-  O24  1  0.54930000  0.00000000  0.36600000  1.0
  O2-  O25  1  0.45070000  0.00000000  0.63400000  1.0
  O2-  O26  1  0.04930000  0.50000000  0.36600000  1.0
  O2-  O27  1  0.95070000  0.50000000  0.63400000  1.0
