# generated using pymatgen
data_LiTi2O4
_symmetry_space_group_name_H-M   'P 1'
_cell_length_a   8.29312000
_cell_length_b   3.98339000
_cell_length_c   9.59847000
_cell_angle_alpha   90.01400000
_cell_angle_beta   91.06097000
_cell_angle_gamma   90.01128000
_symmetry_Int_Tables_number   1
_chemical_formula_structural   LiTi2O4
_chemical_formula_sum   'Li4 Ti8 O16'
_cell_volume   317.02849974
_cell_formula_units_Z   4
loop_
 _symmetry_equiv_pos_site_id
 _symmetry_equiv_pos_as_xyz
  1  'x, y, z'
loop_
 _atom_type_symbol
 _atom_type_oxidation_number
  Li+  1.0
  Ti3.5+  3.5
  O2-  -2.0
loop_
 _atom_site_type_symbol
 _atom_site_label
 _atom_site_symmetry_multiplicity
 _atom_site_fract_x
 _atom_site_fract_y
 _atom_site_fract_z
 _atom_site_occupancy
  Li+  Li0  1  0.00138000  0.99998000  0.01369000  1.0
  Li+  Li1  1  0.24931000  0.50000000  0.50946000  1.0
  Li+  Li2  1  0.99860000  0.49989000  0.23626000  1.0
  Li+  Li3  1  0.75069000  0.00008000  0.74064000  1.0
  Ti3.5+  Ti4  1  0.99138000  0.99998000  0.49694000  1.0
  Ti3.5+  Ti5  1  0.26492000  0.49985000  0.00193000  1.0
  Ti3.5+  Ti6  1  0.00864000  0.50010000  0.75309000  1.0
  Ti3.5+  Ti7  1  0.73507000  0.00031000  0.24806000  1.0
  Ti3.5+  Ti8  1  0.50889000  0.00004000  0.49545000  1.0
  Ti3.5+  Ti9  1  0.74785000  0.50004000  0.99208000  1.0
  Ti3.5+  Ti10  1  0.49113000  0.50012000  0.75452000  1.0
  Ti3.5+  Ti11  1  0.25211000  0.99988000  0.25791000  1.0
  O2-  O12  1  0.00322000  0.99979000  0.27252000  1.0
  O2-  O13  1  0.48825000  0.99996000  0.29010000  1.0
  O2-  O14  1  0.26339000  0.50014000  0.78175000  1.0
  O2-  O15  1  0.74280000  0.50010000  0.78406000  1.0
  O2-  O16  1  0.01772000  0.50009000  0.52510000  1.0
  O2-  O17  1  0.48391000  0.50002000  0.53924000  1.0
  O2-  O18  1  0.24263000  0.99987000  0.04601000  1.0
  O2-  O19  1  0.76173000  0.00001000  0.01722000  1.0
  O2-  O20  1  0.25718000  0.99996000  0.46593000  1.0
  O2-  O21  1  0.73664000  0.99996000  0.46823000  1.0
  O2-  O22  1  0.99670000  0.50003000  0.97743000  1.0
  O2-  O23  1  0.51172000  0.49985000  0.95989000  1.0
  O2-  O24  1  0.23823000  0.49987000  0.23276000  1.0
  O2-  O25  1  0.75742000  0.49989000  0.20399000  1.0
  O2-  O26  1  0.98235000  0.00007000  0.72498000  1.0
  O2-  O27  1  0.51613000  0.00010000  0.71076000  1.0
