# generated using pymatgen
data_Mn2O3
_symmetry_space_group_name_H-M   'P 1'
_cell_length_a   10.30430000
_cell_length_b   10.30430000
_cell_length_c   25.76880000
_cell_angle_alpha   90.00000000
_cell_angle_beta   90.00000000
_cell_angle_gamma   120.00000000
_symmetry_Int_Tables_number   1
_chemical_formula_structural   Mn2O3
_chemical_formula_sum   'Mn96 O144'
_cell_volume   2369.52783672
_cell_formula_units_Z   48
loop_
 _symmetry_equiv_pos_site_id
 _symmetry_equiv_pos_as_xyz
  1  'x, y, z'
loop_
 _atom_type_symbol
 _atom_type_oxidation_number
  Mn3+  3.0
  O2-  -2.0
loop_
 _atom_site_type_symbol
 _atom_site_label
 _atom_site_symmetry_multiplicity
 _atom_site_fract_x
 _atom_site_fract_y
 _atom_site_fract_z
 _atom_site_occupancy
  Mn3+  Mn0  1  0.82900000  0.66470000  0.91720000  1.0
  Mn3+  Mn1  1  0.83570000  0.17100000  0.91720000  1.0
  Mn3+  Mn2  1  0.33530000  0.16430000  0.91720000  1.0
  Mn3+  Mn3  1  0.17100000  0.33530000  0.08280000  1.0
  Mn3+  Mn4  1  0.16430000  0.82900000  0.08280000  1.0
  Mn3+  Mn5  1  0.66470000  0.83570000  0.08280000  1.0
  Mn3+  Mn6  1  0.49566667  0.99803333  0.25053333  1.0
  Mn3+  Mn7  1  0.50236667  0.50433333  0.25053333  1.0
  Mn3+  Mn8  1  0.00196667  0.49763333  0.25053333  1.0
  Mn3+  Mn9  1  0.83766667  0.66863333  0.41613333  1.0
  Mn3+  Mn10  1  0.83096667  0.16233333  0.41613333  1.0
  Mn3+  Mn11  1  0.33136667  0.16903333  0.41613333  1.0
  Mn3+  Mn12  1  0.16233333  0.33136667  0.58386667  1.0
  Mn3+  Mn13  1  0.16903333  0.83766667  0.58386667  1.0
  Mn3+  Mn14  1  0.66863333  0.83096667  0.58386667  1.0
  Mn3+  Mn15  1  0.50433333  0.00196667  0.74946667  1.0
  Mn3+  Mn16  1  0.49763333  0.49566667  0.74946667  1.0
  Mn3+  Mn17  1  0.99803333  0.50236667  0.74946667  1.0
  Mn3+  Mn18  1  0.50000000  0.50000000  0.50000000  1.0
  Mn3+  Mn19  1  0.00000000  0.50000000  0.50000000  1.0
  Mn3+  Mn20  1  0.50000000  0.00000000  0.50000000  1.0
  Mn3+  Mn21  1  0.16666667  0.83333333  0.83333333  1.0
  Mn3+  Mn22  1  0.66666667  0.83333333  0.83333333  1.0
  Mn3+  Mn23  1  0.16666667  0.33333333  0.83333333  1.0
  Mn3+  Mn24  1  0.83333333  0.16666667  0.16666667  1.0
  Mn3+  Mn25  1  0.33333333  0.16666667  0.16666667  1.0
  Mn3+  Mn26  1  0.83333333  0.66666667  0.16666667  1.0
  Mn3+  Mn27  1  0.50000000  0.50000000  0.00000000  1.0
  Mn3+  Mn28  1  0.00000000  0.50000000  0.00000000  1.0
  Mn3+  Mn29  1  0.50000000  0.00000000  0.00000000  1.0
  Mn3+  Mn30  1  0.16666667  0.83333333  0.33333333  1.0
  Mn3+  Mn31  1  0.66666667  0.83333333  0.33333333  1.0
  Mn3+  Mn32  1  0.16666667  0.33333333  0.33333333  1.0
  Mn3+  Mn33  1  0.83333333  0.16666667  0.66666667  1.0
  Mn3+  Mn34  1  0.33333333  0.16666667  0.66666667  1.0
  Mn3+  Mn35  1  0.83333333  0.66666667  0.66666667  1.0
  Mn3+  Mn36  1  0.00000000  0.00000000  0.23770000  1.0
  Mn3+  Mn37  1  0.00000000  0.00000000  0.76230000  1.0
  Mn3+  Mn38  1  0.66666667  0.33333333  0.57103333  1.0
  Mn3+  Mn39  1  0.66666667  0.33333333  0.09563333  1.0
  Mn3+  Mn40  1  0.33333333  0.66666667  0.90436667  1.0
  Mn3+  Mn41  1  0.33333333  0.66666667  0.42896667  1.0
  Mn3+  Mn42  1  0.00000000  0.00000000  0.50000000  1.0
  Mn3+  Mn43  1  0.66666667  0.33333333  0.83333333  1.0
  Mn3+  Mn44  1  0.33333333  0.66666667  0.16666667  1.0
  Mn3+  Mn45  1  0.00000000  0.00000000  0.00000000  1.0
  Mn3+  Mn46  1  0.66666667  0.33333333  0.33333333  1.0
  Mn3+  Mn47  1  0.33333333  0.66666667  0.66666667  1.0
  Mn3+  Mn48  1  0.64820000  0.82910000  0.95970000  1.0
  Mn3+  Mn49  1  0.18090000  0.35180000  0.95970000  1.0
  Mn3+  Mn50  1  0.17090000  0.81910000  0.95970000  1.0
  Mn3+  Mn51  1  0.35180000  0.17090000  0.04030000  1.0
  Mn3+  Mn52  1  0.81910000  0.64820000  0.04030000  1.0
  Mn3+  Mn53  1  0.82910000  0.18090000  0.04030000  1.0
  Mn3+  Mn54  1  0.31486667  0.16243333  0.29303333  1.0
  Mn3+  Mn55  1  0.84756667  0.68513333  0.29303333  1.0
  Mn3+  Mn56  1  0.83756667  0.15243333  0.29303333  1.0
  Mn3+  Mn57  1  0.01846667  0.50423333  0.37363333  1.0
  Mn3+  Mn58  1  0.48576667  0.98153333  0.37363333  1.0
  Mn3+  Mn59  1  0.49576667  0.51423333  0.37363333  1.0
  Mn3+  Mn60  1  0.98153333  0.49576667  0.62636667  1.0
  Mn3+  Mn61  1  0.51423333  0.01846667  0.62636667  1.0
  Mn3+  Mn62  1  0.50423333  0.48576667  0.62636667  1.0
  Mn3+  Mn63  1  0.68513333  0.83756667  0.70696667  1.0
  Mn3+  Mn64  1  0.15243333  0.31486667  0.70696667  1.0
  Mn3+  Mn65  1  0.16243333  0.84756667  0.70696667  1.0
  Mn3+  Mn66  1  0.84350000  0.68070000  0.79350000  1.0
  Mn3+  Mn67  1  0.83720000  0.15650000  0.79350000  1.0
  Mn3+  Mn68  1  0.31930000  0.16280000  0.79350000  1.0
  Mn3+  Mn69  1  0.15650000  0.31930000  0.20650000  1.0
  Mn3+  Mn70  1  0.16280000  0.84350000  0.20650000  1.0
  Mn3+  Mn71  1  0.68070000  0.83720000  0.20650000  1.0
  Mn3+  Mn72  1  0.51016667  0.01403333  0.12683333  1.0
  Mn3+  Mn73  1  0.50386667  0.48983333  0.12683333  1.0
  Mn3+  Mn74  1  0.98596667  0.49613333  0.12683333  1.0
  Mn3+  Mn75  1  0.82316667  0.65263333  0.53983333  1.0
  Mn3+  Mn76  1  0.82946667  0.17683333  0.53983333  1.0
  Mn3+  Mn77  1  0.34736667  0.17053333  0.53983333  1.0
  Mn3+  Mn78  1  0.17683333  0.34736667  0.46016667  1.0
  Mn3+  Mn79  1  0.17053333  0.82316667  0.46016667  1.0
  Mn3+  Mn80  1  0.65263333  0.82946667  0.46016667  1.0
  Mn3+  Mn81  1  0.48983333  0.98596667  0.87316667  1.0
  Mn3+  Mn82  1  0.49613333  0.51016667  0.87316667  1.0
  Mn3+  Mn83  1  0.01403333  0.50386667  0.87316667  1.0
  Mn3+  Mn84  1  0.00000000  0.00000000  0.61310000  1.0
  Mn3+  Mn85  1  0.00000000  0.00000000  0.38690000  1.0
  Mn3+  Mn86  1  0.66666667  0.33333333  0.94643333  1.0
  Mn3+  Mn87  1  0.66666667  0.33333333  0.72023333  1.0
  Mn3+  Mn88  1  0.33333333  0.66666667  0.27976667  1.0
  Mn3+  Mn89  1  0.33333333  0.66666667  0.05356667  1.0
  Mn3+  Mn90  1  0.00000000  0.00000000  0.11450000  1.0
  Mn3+  Mn91  1  0.00000000  0.00000000  0.88550000  1.0
  Mn3+  Mn92  1  0.66666667  0.33333333  0.44783333  1.0
  Mn3+  Mn93  1  0.66666667  0.33333333  0.21883333  1.0
  Mn3+  Mn94  1  0.33333333  0.66666667  0.78116667  1.0
  Mn3+  Mn95  1  0.33333333  0.66666667  0.55216667  1.0
  O2-  O96  1  0.97000000  0.70500000  0.97770000  1.0
  O2-  O97  1  0.73500000  0.03000000  0.97770000  1.0
  O2-  O98  1  0.29500000  0.26500000  0.97770000  1.0
  O2-  O99  1  0.03000000  0.29500000  0.02230000  1.0
  O2-  O100  1  0.26500000  0.97000000  0.02230000  1.0
  O2-  O101  1  0.70500000  0.73500000  0.02230000  1.0
  O2-  O102  1  0.63666667  0.03833333  0.31103333  1.0
  O2-  O103  1  0.40166667  0.36333333  0.31103333  1.0
  O2-  O104  1  0.96166667  0.59833333  0.31103333  1.0
  O2-  O105  1  0.69666667  0.62833333  0.35563333  1.0
  O2-  O106  1  0.93166667  0.30333333  0.35563333  1.0
  O2-  O107  1  0.37166667  0.06833333  0.35563333  1.0
  O2-  O108  1  0.30333333  0.37166667  0.64436667  1.0
  O2-  O109  1  0.06833333  0.69666667  0.64436667  1.0
  O2-  O110  1  0.62833333  0.93166667  0.64436667  1.0
  O2-  O111  1  0.36333333  0.96166667  0.68896667  1.0
  O2-  O112  1  0.59833333  0.63666667  0.68896667  1.0
  O2-  O113  1  0.03833333  0.40166667  0.68896667  1.0
  O2-  O114  1  0.04100000  0.26000000  0.76990000  1.0
  O2-  O115  1  0.21900000  0.95900000  0.76990000  1.0
  O2-  O116  1  0.74000000  0.78100000  0.76990000  1.0
  O2-  O117  1  0.95900000  0.74000000  0.23010000  1.0
  O2-  O118  1  0.78100000  0.04100000  0.23010000  1.0
  O2-  O119  1  0.26000000  0.21900000  0.23010000  1.0
  O2-  O120  1  0.70766667  0.59333333  0.10323333  1.0
  O2-  O121  1  0.88566667  0.29233333  0.10323333  1.0
  O2-  O122  1  0.40666667  0.11433333  0.10323333  1.0
  O2-  O123  1  0.62566667  0.07333333  0.56343333  1.0
  O2-  O124  1  0.44766667  0.37433333  0.56343333  1.0
  O2-  O125  1  0.92666667  0.55233333  0.56343333  1.0
  O2-  O126  1  0.37433333  0.92666667  0.43656667  1.0
  O2-  O127  1  0.55233333  0.62566667  0.43656667  1.0
  O2-  O128  1  0.07333333  0.44766667  0.43656667  1.0
  O2-  O129  1  0.29233333  0.40666667  0.89676667  1.0
  O2-  O130  1  0.11433333  0.70766667  0.89676667  1.0
  O2-  O131  1  0.59333333  0.88566667  0.89676667  1.0
  O2-  O132  1  0.70600000  0.64000000  0.86200000  1.0
  O2-  O133  1  0.93400000  0.29400000  0.86200000  1.0
  O2-  O134  1  0.36000000  0.06600000  0.86200000  1.0
  O2-  O135  1  0.29400000  0.36000000  0.13800000  1.0
  O2-  O136  1  0.06600000  0.70600000  0.13800000  1.0
  O2-  O137  1  0.64000000  0.93400000  0.13800000  1.0
  O2-  O138  1  0.37266667  0.97333333  0.19533333  1.0
  O2-  O139  1  0.60066667  0.62733333  0.19533333  1.0
  O2-  O140  1  0.02666667  0.39933333  0.19533333  1.0
  O2-  O141  1  0.96066667  0.69333333  0.47133333  1.0
  O2-  O142  1  0.73266667  0.03933333  0.47133333  1.0
  O2-  O143  1  0.30666667  0.26733333  0.47133333  1.0
  O2-  O144  1  0.03933333  0.30666667  0.52866667  1.0
  O2-  O145  1  0.26733333  0.96066667  0.52866667  1.0
  O2-  O146  1  0.69333333  0.73266667  0.52866667  1.0
  O2-  O147  1  0.62733333  0.02666667  0.80466667  1.0
  O2-  O148  1  0.39933333  0.37266667  0.80466667  1.0
  O2-  O149  1  0.97333333  0.60066667  0.80466667  1.0
  O2-  O150  1  0.96100000  0.77800000  0.72190000  1.0
  O2-  O151  1  0.81700000  0.03900000  0.72190000  1.0
  O2-  O152  1  0.22200000  0.18300000  0.72190000  1.0
  O2-  O153  1  0.03900000  0.22200000  0.27810000  1.0
  O2-  O154  1  0.18300000  0.96100000  0.27810000  1.0
  O2-  O155  1  0.77800000  0.81700000  0.27810000  1.0
  O2-  O156  1  0.62766667  0.11133333  0.05523333  1.0
  O2-  O157  1  0.48366667  0.37233333  0.05523333  1.0
  O2-  O158  1  0.88866667  0.51633333  0.05523333  1.0
  O2-  O159  1  0.70566667  0.55533333  0.61143333  1.0
  O2-  O160  1  0.84966667  0.29433333  0.61143333  1.0
  O2-  O161  1  0.44466667  0.15033333  0.61143333  1.0
  O2-  O162  1  0.29433333  0.44466667  0.38856667  1.0
  O2-  O163  1  0.15033333  0.70566667  0.38856667  1.0
  O2-  O164  1  0.55533333  0.84966667  0.38856667  1.0
  O2-  O165  1  0.37233333  0.88866667  0.94476667  1.0
  O2-  O166  1  0.51633333  0.62766667  0.94476667  1.0
  O2-  O167  1  0.11133333  0.48366667  0.94476667  1.0
  O2-  O168  1  0.50600000  0.82900000  0.01900000  1.0
  O2-  O169  1  0.32300000  0.49400000  0.01900000  1.0
  O2-  O170  1  0.17100000  0.67700000  0.01900000  1.0
  O2-  O171  1  0.49400000  0.17100000  0.98100000  1.0
  O2-  O172  1  0.67700000  0.50600000  0.98100000  1.0
  O2-  O173  1  0.82900000  0.32300000  0.98100000  1.0
  O2-  O174  1  0.17266667  0.16233333  0.35233333  1.0
  O2-  O175  1  0.98966667  0.82733333  0.35233333  1.0
  O2-  O176  1  0.83766667  0.01033333  0.35233333  1.0
  O2-  O177  1  0.16066667  0.50433333  0.31433333  1.0
  O2-  O178  1  0.34366667  0.83933333  0.31433333  1.0
  O2-  O179  1  0.49566667  0.65633333  0.31433333  1.0
  O2-  O180  1  0.83933333  0.49566667  0.68566667  1.0
  O2-  O181  1  0.65633333  0.16066667  0.68566667  1.0
  O2-  O182  1  0.50433333  0.34366667  0.68566667  1.0
  O2-  O183  1  0.82733333  0.83766667  0.64766667  1.0
  O2-  O184  1  0.01033333  0.17266667  0.64766667  1.0
  O2-  O185  1  0.16233333  0.98966667  0.64766667  1.0
  O2-  O186  1  0.50600000  0.18600000  0.76590000  1.0
  O2-  O187  1  0.68000000  0.49400000  0.76590000  1.0
  O2-  O188  1  0.81400000  0.32000000  0.76590000  1.0
  O2-  O189  1  0.49400000  0.81400000  0.23410000  1.0
  O2-  O190  1  0.32000000  0.50600000  0.23410000  1.0
  O2-  O191  1  0.18600000  0.68000000  0.23410000  1.0
  O2-  O192  1  0.17266667  0.51933333  0.09923333  1.0
  O2-  O193  1  0.34666667  0.82733333  0.09923333  1.0
  O2-  O194  1  0.48066667  0.65333333  0.09923333  1.0
  O2-  O195  1  0.16066667  0.14733333  0.56743333  1.0
  O2-  O196  1  0.98666667  0.83933333  0.56743333  1.0
  O2-  O197  1  0.85266667  0.01333333  0.56743333  1.0
  O2-  O198  1  0.83933333  0.85266667  0.43256667  1.0
  O2-  O199  1  0.01333333  0.16066667  0.43256667  1.0
  O2-  O200  1  0.14733333  0.98666667  0.43256667  1.0
  O2-  O201  1  0.82733333  0.48066667  0.90076667  1.0
  O2-  O202  1  0.65333333  0.17266667  0.90076667  1.0
  O2-  O203  1  0.51933333  0.34666667  0.90076667  1.0
  O2-  O204  1  0.17700000  0.51900000  0.82770000  1.0
  O2-  O205  1  0.34200000  0.82300000  0.82770000  1.0
  O2-  O206  1  0.48100000  0.65800000  0.82770000  1.0
  O2-  O207  1  0.82300000  0.48100000  0.17230000  1.0
  O2-  O208  1  0.65800000  0.17700000  0.17230000  1.0
  O2-  O209  1  0.51900000  0.34200000  0.17230000  1.0
  O2-  O210  1  0.84366667  0.85233333  0.16103333  1.0
  O2-  O211  1  0.00866667  0.15633333  0.16103333  1.0
  O2-  O212  1  0.14766667  0.99133333  0.16103333  1.0
  O2-  O213  1  0.48966667  0.81433333  0.50563333  1.0
  O2-  O214  1  0.32466667  0.51033333  0.50563333  1.0
  O2-  O215  1  0.18566667  0.67533333  0.50563333  1.0
  O2-  O216  1  0.51033333  0.18566667  0.49436667  1.0
  O2-  O217  1  0.67533333  0.48966667  0.49436667  1.0
  O2-  O218  1  0.81433333  0.32466667  0.49436667  1.0
  O2-  O219  1  0.15633333  0.14766667  0.83896667  1.0
  O2-  O220  1  0.99133333  0.84366667  0.83896667  1.0
  O2-  O221  1  0.85233333  0.00866667  0.83896667  1.0
  O2-  O222  1  0.48800000  0.81400000  0.73780000  1.0
  O2-  O223  1  0.32600000  0.51200000  0.73780000  1.0
  O2-  O224  1  0.18600000  0.67400000  0.73780000  1.0
  O2-  O225  1  0.51200000  0.18600000  0.26220000  1.0
  O2-  O226  1  0.67400000  0.48800000  0.26220000  1.0
  O2-  O227  1  0.81400000  0.32600000  0.26220000  1.0
  O2-  O228  1  0.15466667  0.14733333  0.07113333  1.0
  O2-  O229  1  0.99266667  0.84533333  0.07113333  1.0
  O2-  O230  1  0.85266667  0.00733333  0.07113333  1.0
  O2-  O231  1  0.17866667  0.51933333  0.59553333  1.0
  O2-  O232  1  0.34066667  0.82133333  0.59553333  1.0
  O2-  O233  1  0.48066667  0.65933333  0.59553333  1.0
  O2-  O234  1  0.82133333  0.48066667  0.40446667  1.0
  O2-  O235  1  0.65933333  0.17866667  0.40446667  1.0
  O2-  O236  1  0.51933333  0.34066667  0.40446667  1.0
  O2-  O237  1  0.84533333  0.85266667  0.92886667  1.0
  O2-  O238  1  0.00733333  0.15466667  0.92886667  1.0
  O2-  O239  1  0.14733333  0.99266667  0.92886667  1.0
