# generated using pymatgen
data_Mn2O3
_symmetry_space_group_name_H-M   'P 1'
_cell_length_a   14.64820000
_cell_length_b   14.64820000
_cell_length_c   14.67050000
_cell_angle_alpha   89.21080000
_cell_angle_beta   89.20310000
_cell_angle_gamma   89.19600000
_symmetry_Int_Tables_number   1
_chemical_formula_structural   Mn2O3
_chemical_formula_sum   'Mn128 O192'
_cell_volume   3146.94109515
_cell_formula_units_Z   64
loop_
 _symmetry_equiv_pos_site_id
 _symmetry_equiv_pos_as_xyz
  1  'x, y, z'
loop_
 _atom_type_symbol
 _atom_type_oxidation_number
  Mn3+  3.0
  O2-  -2.0
loop_
 _atom_site_type_symbol
 _atom_site_label
 _atom_site_symmetry_multiplicity
 _atom_site_fract_x
 _atom_site_fract_y
 _atom_site_fract_z
 _atom_site_occupancy
  Mn3+  Mn0  1  0.24990000  0.00270000  0.49980000  1.0
  Mn3+  Mn1  1  0.75010000  0.99730000  0.50020000  1.0
  Mn3+  Mn2  1  0.24990000  0.50270000  0.99980000  1.0
  Mn3+  Mn3  1  0.75010000  0.49730000  0.00020000  1.0
  Mn3+  Mn4  1  0.74990000  0.00270000  0.99980000  1.0
  Mn3+  Mn5  1  0.25010000  0.99730000  0.00020000  1.0
  Mn3+  Mn6  1  0.74990000  0.50270000  0.49980000  1.0
  Mn3+  Mn7  1  0.25010000  0.49730000  0.50020000  1.0
  Mn3+  Mn8  1  0.49980000  0.24990000  0.00270000  1.0
  Mn3+  Mn9  1  0.50020000  0.75010000  0.99730000  1.0
  Mn3+  Mn10  1  0.49980000  0.74990000  0.50270000  1.0
  Mn3+  Mn11  1  0.50020000  0.25010000  0.49730000  1.0
  Mn3+  Mn12  1  0.99980000  0.24990000  0.50270000  1.0
  Mn3+  Mn13  1  0.00020000  0.75010000  0.49730000  1.0
  Mn3+  Mn14  1  0.99980000  0.74990000  0.00270000  1.0
  Mn3+  Mn15  1  0.00020000  0.25010000  0.99730000  1.0
  Mn3+  Mn16  1  0.00270000  0.49980000  0.24990000  1.0
  Mn3+  Mn17  1  0.99730000  0.50020000  0.75010000  1.0
  Mn3+  Mn18  1  0.00270000  0.99980000  0.74990000  1.0
  Mn3+  Mn19  1  0.99730000  0.00020000  0.25010000  1.0
  Mn3+  Mn20  1  0.50270000  0.49980000  0.74990000  1.0
  Mn3+  Mn21  1  0.49730000  0.50020000  0.25010000  1.0
  Mn3+  Mn22  1  0.50270000  0.99980000  0.24990000  1.0
  Mn3+  Mn23  1  0.49730000  0.00020000  0.75010000  1.0
  Mn3+  Mn24  1  0.75000000  0.25000000  0.50000000  1.0
  Mn3+  Mn25  1  0.25000000  0.75000000  0.50000000  1.0
  Mn3+  Mn26  1  0.75000000  0.75000000  0.00000000  1.0
  Mn3+  Mn27  1  0.25000000  0.25000000  0.00000000  1.0
  Mn3+  Mn28  1  0.50000000  0.75000000  0.25000000  1.0
  Mn3+  Mn29  1  0.50000000  0.25000000  0.75000000  1.0
  Mn3+  Mn30  1  0.00000000  0.75000000  0.75000000  1.0
  Mn3+  Mn31  1  0.00000000  0.25000000  0.25000000  1.0
  Mn3+  Mn32  1  0.25000000  0.50000000  0.75000000  1.0
  Mn3+  Mn33  1  0.75000000  0.50000000  0.25000000  1.0
  Mn3+  Mn34  1  0.25000000  0.00000000  0.25000000  1.0
  Mn3+  Mn35  1  0.75000000  0.00000000  0.75000000  1.0
  Mn3+  Mn36  1  0.25000000  0.75000000  0.00000000  1.0
  Mn3+  Mn37  1  0.75000000  0.25000000  0.00000000  1.0
  Mn3+  Mn38  1  0.25000000  0.25000000  0.50000000  1.0
  Mn3+  Mn39  1  0.75000000  0.75000000  0.50000000  1.0
  Mn3+  Mn40  1  0.00000000  0.25000000  0.75000000  1.0
  Mn3+  Mn41  1  0.00000000  0.75000000  0.25000000  1.0
  Mn3+  Mn42  1  0.50000000  0.25000000  0.25000000  1.0
  Mn3+  Mn43  1  0.50000000  0.75000000  0.75000000  1.0
  Mn3+  Mn44  1  0.75000000  0.00000000  0.25000000  1.0
  Mn3+  Mn45  1  0.25000000  0.00000000  0.75000000  1.0
  Mn3+  Mn46  1  0.75000000  0.50000000  0.75000000  1.0
  Mn3+  Mn47  1  0.25000000  0.50000000  0.25000000  1.0
  Mn3+  Mn48  1  0.23820000  0.23310000  0.24350000  1.0
  Mn3+  Mn49  1  0.76180000  0.76690000  0.75650000  1.0
  Mn3+  Mn50  1  0.23820000  0.73310000  0.74350000  1.0
  Mn3+  Mn51  1  0.76180000  0.26690000  0.25650000  1.0
  Mn3+  Mn52  1  0.73820000  0.23310000  0.74350000  1.0
  Mn3+  Mn53  1  0.26180000  0.76690000  0.25650000  1.0
  Mn3+  Mn54  1  0.73820000  0.73310000  0.24350000  1.0
  Mn3+  Mn55  1  0.26180000  0.26690000  0.75650000  1.0
  Mn3+  Mn56  1  0.50000000  0.50000000  0.50000000  1.0
  Mn3+  Mn57  1  0.50000000  0.00000000  0.00000000  1.0
  Mn3+  Mn58  1  0.00000000  0.50000000  0.00000000  1.0
  Mn3+  Mn59  1  0.00000000  0.00000000  0.50000000  1.0
  Mn3+  Mn60  1  0.00000000  0.00000000  0.00000000  1.0
  Mn3+  Mn61  1  0.00000000  0.50000000  0.50000000  1.0
  Mn3+  Mn62  1  0.50000000  0.00000000  0.50000000  1.0
  Mn3+  Mn63  1  0.50000000  0.50000000  0.00000000  1.0
  Mn3+  Mn64  1  0.37340000  0.63570000  0.87030000  1.0
  Mn3+  Mn65  1  0.62660000  0.36430000  0.12970000  1.0
  Mn3+  Mn66  1  0.37340000  0.13570000  0.37030000  1.0
  Mn3+  Mn67  1  0.62660000  0.86430000  0.62970000  1.0
  Mn3+  Mn68  1  0.87340000  0.63570000  0.37030000  1.0
  Mn3+  Mn69  1  0.12660000  0.36430000  0.62970000  1.0
  Mn3+  Mn70  1  0.87340000  0.13570000  0.87030000  1.0
  Mn3+  Mn71  1  0.12660000  0.86430000  0.12970000  1.0
  Mn3+  Mn72  1  0.87030000  0.37340000  0.63570000  1.0
  Mn3+  Mn73  1  0.12970000  0.62660000  0.36430000  1.0
  Mn3+  Mn74  1  0.87030000  0.87340000  0.13570000  1.0
  Mn3+  Mn75  1  0.12970000  0.12660000  0.86430000  1.0
  Mn3+  Mn76  1  0.37030000  0.37340000  0.13570000  1.0
  Mn3+  Mn77  1  0.62970000  0.62660000  0.86430000  1.0
  Mn3+  Mn78  1  0.37030000  0.87340000  0.63570000  1.0
  Mn3+  Mn79  1  0.62970000  0.12660000  0.36430000  1.0
  Mn3+  Mn80  1  0.63570000  0.87030000  0.37340000  1.0
  Mn3+  Mn81  1  0.36430000  0.12970000  0.62660000  1.0
  Mn3+  Mn82  1  0.63570000  0.37030000  0.87340000  1.0
  Mn3+  Mn83  1  0.36430000  0.62970000  0.12660000  1.0
  Mn3+  Mn84  1  0.13570000  0.87030000  0.87340000  1.0
  Mn3+  Mn85  1  0.86430000  0.12970000  0.12660000  1.0
  Mn3+  Mn86  1  0.13570000  0.37030000  0.37340000  1.0
  Mn3+  Mn87  1  0.86430000  0.62970000  0.62660000  1.0
  Mn3+  Mn88  1  0.13310000  0.87340000  0.37370000  1.0
  Mn3+  Mn89  1  0.86690000  0.12660000  0.62630000  1.0
  Mn3+  Mn90  1  0.13310000  0.37340000  0.87370000  1.0
  Mn3+  Mn91  1  0.86690000  0.62660000  0.12630000  1.0
  Mn3+  Mn92  1  0.63310000  0.87340000  0.87370000  1.0
  Mn3+  Mn93  1  0.36690000  0.12660000  0.12630000  1.0
  Mn3+  Mn94  1  0.63310000  0.37340000  0.37370000  1.0
  Mn3+  Mn95  1  0.36690000  0.62660000  0.62630000  1.0
  Mn3+  Mn96  1  0.37370000  0.13310000  0.87340000  1.0
  Mn3+  Mn97  1  0.62630000  0.86690000  0.12660000  1.0
  Mn3+  Mn98  1  0.37370000  0.63310000  0.37340000  1.0
  Mn3+  Mn99  1  0.62630000  0.36690000  0.62660000  1.0
  Mn3+  Mn100  1  0.87370000  0.13310000  0.37340000  1.0
  Mn3+  Mn101  1  0.12630000  0.86690000  0.62660000  1.0
  Mn3+  Mn102  1  0.87370000  0.63310000  0.87340000  1.0
  Mn3+  Mn103  1  0.12630000  0.36690000  0.12660000  1.0
  Mn3+  Mn104  1  0.87340000  0.37370000  0.13310000  1.0
  Mn3+  Mn105  1  0.12660000  0.62630000  0.86690000  1.0
  Mn3+  Mn106  1  0.87340000  0.87370000  0.63310000  1.0
  Mn3+  Mn107  1  0.12660000  0.12630000  0.36690000  1.0
  Mn3+  Mn108  1  0.37340000  0.37370000  0.63310000  1.0
  Mn3+  Mn109  1  0.62660000  0.62630000  0.36690000  1.0
  Mn3+  Mn110  1  0.37340000  0.87370000  0.13310000  1.0
  Mn3+  Mn111  1  0.62660000  0.12630000  0.86690000  1.0
  Mn3+  Mn112  1  0.61070000  0.60820000  0.61820000  1.0
  Mn3+  Mn113  1  0.38930000  0.39180000  0.38180000  1.0
  Mn3+  Mn114  1  0.61070000  0.10820000  0.11820000  1.0
  Mn3+  Mn115  1  0.38930000  0.89180000  0.88180000  1.0
  Mn3+  Mn116  1  0.11070000  0.60820000  0.11820000  1.0
  Mn3+  Mn117  1  0.88930000  0.39180000  0.88180000  1.0
  Mn3+  Mn118  1  0.11070000  0.10820000  0.61820000  1.0
  Mn3+  Mn119  1  0.88930000  0.89180000  0.38180000  1.0
  Mn3+  Mn120  1  0.11250000  0.11080000  0.11950000  1.0
  Mn3+  Mn121  1  0.88750000  0.88920000  0.88050000  1.0
  Mn3+  Mn122  1  0.11250000  0.61080000  0.61950000  1.0
  Mn3+  Mn123  1  0.88750000  0.38920000  0.38050000  1.0
  Mn3+  Mn124  1  0.61250000  0.11080000  0.61950000  1.0
  Mn3+  Mn125  1  0.38750000  0.88920000  0.38050000  1.0
  Mn3+  Mn126  1  0.61250000  0.61080000  0.11950000  1.0
  Mn3+  Mn127  1  0.38750000  0.38920000  0.88050000  1.0
  O2-  O128  1  0.33040000  0.99200000  0.60990000  1.0
  O2-  O129  1  0.66960000  0.00800000  0.39010000  1.0
  O2-  O130  1  0.33040000  0.49200000  0.10990000  1.0
  O2-  O131  1  0.66960000  0.50800000  0.89010000  1.0
  O2-  O132  1  0.83040000  0.99200000  0.10990000  1.0
  O2-  O133  1  0.16960000  0.00800000  0.89010000  1.0
  O2-  O134  1  0.83040000  0.49200000  0.60990000  1.0
  O2-  O135  1  0.16960000  0.50800000  0.39010000  1.0
  O2-  O136  1  0.60990000  0.33040000  0.99200000  1.0
  O2-  O137  1  0.39010000  0.66960000  0.00800000  1.0
  O2-  O138  1  0.60990000  0.83040000  0.49200000  1.0
  O2-  O139  1  0.39010000  0.16960000  0.50800000  1.0
  O2-  O140  1  0.10990000  0.33040000  0.49200000  1.0
  O2-  O141  1  0.89010000  0.66960000  0.50800000  1.0
  O2-  O142  1  0.10990000  0.83040000  0.99200000  1.0
  O2-  O143  1  0.89010000  0.16960000  0.00800000  1.0
  O2-  O144  1  0.99200000  0.60990000  0.33040000  1.0
  O2-  O145  1  0.00800000  0.39010000  0.66960000  1.0
  O2-  O146  1  0.99200000  0.10990000  0.83040000  1.0
  O2-  O147  1  0.00800000  0.89010000  0.16960000  1.0
  O2-  O148  1  0.49200000  0.60990000  0.83040000  1.0
  O2-  O149  1  0.50800000  0.39010000  0.16960000  1.0
  O2-  O150  1  0.49200000  0.10990000  0.33040000  1.0
  O2-  O151  1  0.50800000  0.89010000  0.66960000  1.0
  O2-  O152  1  0.89950000  0.74640000  0.66480000  1.0
  O2-  O153  1  0.10050000  0.25360000  0.33520000  1.0
  O2-  O154  1  0.89950000  0.24640000  0.16480000  1.0
  O2-  O155  1  0.10050000  0.75360000  0.83520000  1.0
  O2-  O156  1  0.39950000  0.74640000  0.16480000  1.0
  O2-  O157  1  0.60050000  0.25360000  0.83520000  1.0
  O2-  O158  1  0.39950000  0.24640000  0.66480000  1.0
  O2-  O159  1  0.60050000  0.75360000  0.33520000  1.0
  O2-  O160  1  0.66480000  0.89950000  0.74640000  1.0
  O2-  O161  1  0.33520000  0.10050000  0.25360000  1.0
  O2-  O162  1  0.66480000  0.39950000  0.24640000  1.0
  O2-  O163  1  0.33520000  0.60050000  0.75360000  1.0
  O2-  O164  1  0.16480000  0.89950000  0.24640000  1.0
  O2-  O165  1  0.83520000  0.10050000  0.75360000  1.0
  O2-  O166  1  0.16480000  0.39950000  0.74640000  1.0
  O2-  O167  1  0.83520000  0.60050000  0.25360000  1.0
  O2-  O168  1  0.74640000  0.66480000  0.89950000  1.0
  O2-  O169  1  0.25360000  0.33520000  0.10050000  1.0
  O2-  O170  1  0.74640000  0.16480000  0.39950000  1.0
  O2-  O171  1  0.25360000  0.83520000  0.60050000  1.0
  O2-  O172  1  0.24640000  0.66480000  0.39950000  1.0
  O2-  O173  1  0.75360000  0.33520000  0.60050000  1.0
  O2-  O174  1  0.24640000  0.16480000  0.89950000  1.0
  O2-  O175  1  0.75360000  0.83520000  0.10050000  1.0
  O2-  O176  1  0.18090000  0.01010000  0.39610000  1.0
  O2-  O177  1  0.81910000  0.98990000  0.60390000  1.0
  O2-  O178  1  0.18090000  0.51010000  0.89610000  1.0
  O2-  O179  1  0.81910000  0.48990000  0.10390000  1.0
  O2-  O180  1  0.68090000  0.01010000  0.89610000  1.0
  O2-  O181  1  0.31910000  0.98990000  0.10390000  1.0
  O2-  O182  1  0.68090000  0.51010000  0.39610000  1.0
  O2-  O183  1  0.31910000  0.48990000  0.60390000  1.0
  O2-  O184  1  0.39610000  0.18090000  0.01010000  1.0
  O2-  O185  1  0.60390000  0.81910000  0.98990000  1.0
  O2-  O186  1  0.39610000  0.68090000  0.51010000  1.0
  O2-  O187  1  0.60390000  0.31910000  0.48990000  1.0
  O2-  O188  1  0.89610000  0.18090000  0.51010000  1.0
  O2-  O189  1  0.10390000  0.81910000  0.48990000  1.0
  O2-  O190  1  0.89610000  0.68090000  0.01010000  1.0
  O2-  O191  1  0.10390000  0.31910000  0.98990000  1.0
  O2-  O192  1  0.01010000  0.39610000  0.18090000  1.0
  O2-  O193  1  0.98990000  0.60390000  0.81910000  1.0
  O2-  O194  1  0.01010000  0.89610000  0.68090000  1.0
  O2-  O195  1  0.98990000  0.10390000  0.31910000  1.0
  O2-  O196  1  0.51010000  0.39610000  0.68090000  1.0
  O2-  O197  1  0.48990000  0.60390000  0.31910000  1.0
  O2-  O198  1  0.51010000  0.89610000  0.18090000  1.0
  O2-  O199  1  0.48990000  0.10390000  0.81910000  1.0
  O2-  O200  1  0.11000000  0.74210000  0.31580000  1.0
  O2-  O201  1  0.89000000  0.25790000  0.68420000  1.0
  O2-  O202  1  0.11000000  0.24210000  0.81580000  1.0
  O2-  O203  1  0.89000000  0.75790000  0.18420000  1.0
  O2-  O204  1  0.61000000  0.74210000  0.81580000  1.0
  O2-  O205  1  0.39000000  0.25790000  0.18420000  1.0
  O2-  O206  1  0.61000000  0.24210000  0.31580000  1.0
  O2-  O207  1  0.39000000  0.75790000  0.68420000  1.0
  O2-  O208  1  0.31580000  0.11000000  0.74210000  1.0
  O2-  O209  1  0.68420000  0.89000000  0.25790000  1.0
  O2-  O210  1  0.31580000  0.61000000  0.24210000  1.0
  O2-  O211  1  0.68420000  0.39000000  0.75790000  1.0
  O2-  O212  1  0.81580000  0.11000000  0.24210000  1.0
  O2-  O213  1  0.18420000  0.89000000  0.75790000  1.0
  O2-  O214  1  0.81580000  0.61000000  0.74210000  1.0
  O2-  O215  1  0.18420000  0.39000000  0.25790000  1.0
  O2-  O216  1  0.74210000  0.31580000  0.11000000  1.0
  O2-  O217  1  0.25790000  0.68420000  0.89000000  1.0
  O2-  O218  1  0.74210000  0.81580000  0.61000000  1.0
  O2-  O219  1  0.25790000  0.18420000  0.39000000  1.0
  O2-  O220  1  0.24210000  0.31580000  0.61000000  1.0
  O2-  O221  1  0.75790000  0.68420000  0.39000000  1.0
  O2-  O222  1  0.24210000  0.81580000  0.11000000  1.0
  O2-  O223  1  0.75790000  0.18420000  0.89000000  1.0
  O2-  O224  1  0.42910000  0.76870000  0.85700000  1.0
  O2-  O225  1  0.57090000  0.23130000  0.14300000  1.0
  O2-  O226  1  0.42910000  0.26870000  0.35700000  1.0
  O2-  O227  1  0.57090000  0.73130000  0.64300000  1.0
  O2-  O228  1  0.92910000  0.76870000  0.35700000  1.0
  O2-  O229  1  0.07090000  0.23130000  0.64300000  1.0
  O2-  O230  1  0.92910000  0.26870000  0.85700000  1.0
  O2-  O231  1  0.07090000  0.73130000  0.14300000  1.0
  O2-  O232  1  0.85700000  0.42910000  0.76870000  1.0
  O2-  O233  1  0.14300000  0.57090000  0.23130000  1.0
  O2-  O234  1  0.85700000  0.92910000  0.26870000  1.0
  O2-  O235  1  0.14300000  0.07090000  0.73130000  1.0
  O2-  O236  1  0.35700000  0.42910000  0.26870000  1.0
  O2-  O237  1  0.64300000  0.57090000  0.73130000  1.0
  O2-  O238  1  0.35700000  0.92910000  0.76870000  1.0
  O2-  O239  1  0.64300000  0.07090000  0.23130000  1.0
  O2-  O240  1  0.76870000  0.85700000  0.42910000  1.0
  O2-  O241  1  0.23130000  0.14300000  0.57090000  1.0
  O2-  O242  1  0.76870000  0.35700000  0.92910000  1.0
  O2-  O243  1  0.23130000  0.64300000  0.07090000  1.0
  O2-  O244  1  0.26870000  0.85700000  0.92910000  1.0
  O2-  O245  1  0.73130000  0.14300000  0.07090000  1.0
  O2-  O246  1  0.26870000  0.35700000  0.42910000  1.0
  O2-  O247  1  0.73130000  0.64300000  0.57090000  1.0
  O2-  O248  1  0.85600000  0.01400000  0.40500000  1.0
  O2-  O249  1  0.14400000  0.98600000  0.59500000  1.0
  O2-  O250  1  0.85600000  0.51400000  0.90500000  1.0
  O2-  O251  1  0.14400000  0.48600000  0.09500000  1.0
  O2-  O252  1  0.35600000  0.01400000  0.90500000  1.0
  O2-  O253  1  0.64400000  0.98600000  0.09500000  1.0
  O2-  O254  1  0.35600000  0.51400000  0.40500000  1.0
  O2-  O255  1  0.64400000  0.48600000  0.59500000  1.0
  O2-  O256  1  0.42900000  0.85800000  0.00300000  1.0
  O2-  O257  1  0.57100000  0.14200000  0.99700000  1.0
  O2-  O258  1  0.42900000  0.35800000  0.50300000  1.0
  O2-  O259  1  0.57100000  0.64200000  0.49700000  1.0
  O2-  O260  1  0.92900000  0.85800000  0.50300000  1.0
  O2-  O261  1  0.07100000  0.14200000  0.49700000  1.0
  O2-  O262  1  0.92900000  0.35800000  0.00300000  1.0
  O2-  O263  1  0.07100000  0.64200000  0.99700000  1.0
  O2-  O264  1  0.01500000  0.43800000  0.86200000  1.0
  O2-  O265  1  0.98500000  0.56200000  0.13800000  1.0
  O2-  O266  1  0.01500000  0.93800000  0.36200000  1.0
  O2-  O267  1  0.98500000  0.06200000  0.63800000  1.0
  O2-  O268  1  0.51500000  0.43800000  0.36200000  1.0
  O2-  O269  1  0.48500000  0.56200000  0.63800000  1.0
  O2-  O270  1  0.51500000  0.93800000  0.86200000  1.0
  O2-  O271  1  0.48500000  0.06200000  0.13800000  1.0
  O2-  O272  1  0.08400000  0.73700000  0.64500000  1.0
  O2-  O273  1  0.91600000  0.26300000  0.35500000  1.0
  O2-  O274  1  0.08400000  0.23700000  0.14500000  1.0
  O2-  O275  1  0.91600000  0.76300000  0.85500000  1.0
  O2-  O276  1  0.58400000  0.73700000  0.14500000  1.0
  O2-  O277  1  0.41600000  0.26300000  0.85500000  1.0
  O2-  O278  1  0.58400000  0.23700000  0.64500000  1.0
  O2-  O279  1  0.41600000  0.76300000  0.35500000  1.0
  O2-  O280  1  0.65000000  0.07400000  0.73900000  1.0
  O2-  O281  1  0.35000000  0.92600000  0.26100000  1.0
  O2-  O282  1  0.65000000  0.57400000  0.23900000  1.0
  O2-  O283  1  0.35000000  0.42600000  0.76100000  1.0
  O2-  O284  1  0.15000000  0.07400000  0.23900000  1.0
  O2-  O285  1  0.85000000  0.92600000  0.76100000  1.0
  O2-  O286  1  0.15000000  0.57400000  0.73900000  1.0
  O2-  O287  1  0.85000000  0.42600000  0.26100000  1.0
  O2-  O288  1  0.74700000  0.67300000  0.09900000  1.0
  O2-  O289  1  0.25300000  0.32700000  0.90100000  1.0
  O2-  O290  1  0.74700000  0.17300000  0.59900000  1.0
  O2-  O291  1  0.25300000  0.82700000  0.40100000  1.0
  O2-  O292  1  0.24700000  0.67300000  0.59900000  1.0
  O2-  O293  1  0.75300000  0.32700000  0.40100000  1.0
  O2-  O294  1  0.24700000  0.17300000  0.09900000  1.0
  O2-  O295  1  0.75300000  0.82700000  0.90100000  1.0
  O2-  O296  1  0.15400000  0.49000000  0.59700000  1.0
  O2-  O297  1  0.84600000  0.51000000  0.40300000  1.0
  O2-  O298  1  0.15400000  0.99000000  0.09700000  1.0
  O2-  O299  1  0.84600000  0.01000000  0.90300000  1.0
  O2-  O300  1  0.65400000  0.49000000  0.09700000  1.0
  O2-  O301  1  0.34600000  0.51000000  0.90300000  1.0
  O2-  O302  1  0.65400000  0.99000000  0.59700000  1.0
  O2-  O303  1  0.34600000  0.01000000  0.40300000  1.0
  O2-  O304  1  0.56600000  0.14300000  0.49700000  1.0
  O2-  O305  1  0.43400000  0.85700000  0.50300000  1.0
  O2-  O306  1  0.56600000  0.64300000  0.99700000  1.0
  O2-  O307  1  0.43400000  0.35700000  0.00300000  1.0
  O2-  O308  1  0.06600000  0.14300000  0.99700000  1.0
  O2-  O309  1  0.93400000  0.85700000  0.00300000  1.0
  O2-  O310  1  0.06600000  0.64300000  0.49700000  1.0
  O2-  O311  1  0.93400000  0.35700000  0.50300000  1.0
  O2-  O312  1  0.48700000  0.56200000  0.14100000  1.0
  O2-  O313  1  0.51300000  0.43800000  0.85900000  1.0
  O2-  O314  1  0.48700000  0.06200000  0.64100000  1.0
  O2-  O315  1  0.51300000  0.93800000  0.35900000  1.0
  O2-  O316  1  0.98700000  0.56200000  0.64100000  1.0
  O2-  O317  1  0.01300000  0.43800000  0.35900000  1.0
  O2-  O318  1  0.98700000  0.06200000  0.14100000  1.0
  O2-  O319  1  0.01300000  0.93800000  0.85900000  1.0
