# generated using pymatgen
data_Mn2O7
_symmetry_space_group_name_H-M   'P 1'
_cell_length_a   6.79560000
_cell_length_b   16.68680000
_cell_length_c   9.45390000
_cell_angle_alpha   90.00000000
_cell_angle_beta   100.20000000
_cell_angle_gamma   90.00000000
_symmetry_Int_Tables_number   1
_chemical_formula_structural   Mn2O7
_chemical_formula_sum   'Mn16 O56'
_cell_volume   1055.09920358
_cell_formula_units_Z   8
loop_
 _symmetry_equiv_pos_site_id
 _symmetry_equiv_pos_as_xyz
  1  'x, y, z'
loop_
 _atom_type_symbol
 _atom_type_oxidation_number
  Mn7+  7.0
  O2-  -2.0
loop_
 _atom_site_type_symbol
 _atom_site_label
 _atom_site_symmetry_multiplicity
 _atom_site_fract_x
 _atom_site_fract_y
 _atom_site_fract_z
 _atom_site_occupancy
  Mn7+  Mn0  1  0.35615000  0.24672000  0.04764000  1.0
  Mn7+  Mn1  1  0.64385000  0.74672000  0.45236000  1.0
  Mn7+  Mn2  1  0.64385000  0.75328000  0.95236000  1.0
  Mn7+  Mn3  1  0.35615000  0.25328000  0.54764000  1.0
  Mn7+  Mn4  1  0.92205000  0.24773000  0.88909000  1.0
  Mn7+  Mn5  1  0.07795000  0.74773000  0.61091000  1.0
  Mn7+  Mn6  1  0.07795000  0.75227000  0.11091000  1.0
  Mn7+  Mn7  1  0.92205000  0.25227000  0.38909000  1.0
  Mn7+  Mn8  1  0.78776000  0.99799000  0.17239000  1.0
  Mn7+  Mn9  1  0.21224000  0.49799000  0.32761000  1.0
  Mn7+  Mn10  1  0.21224000  0.00201000  0.82761000  1.0
  Mn7+  Mn11  1  0.78776000  0.50201000  0.67239000  1.0
  Mn7+  Mn12  1  0.22184000  0.99863000  0.33029000  1.0
  Mn7+  Mn13  1  0.77816000  0.49863000  0.16971000  1.0
  Mn7+  Mn14  1  0.77816000  0.00137000  0.66971000  1.0
  Mn7+  Mn15  1  0.22184000  0.50137000  0.83029000  1.0
  O2-  O16  1  0.13890000  0.29940000  0.97040000  1.0
  O2-  O17  1  0.86110000  0.79940000  0.52960000  1.0
  O2-  O18  1  0.86110000  0.70060000  0.02960000  1.0
  O2-  O19  1  0.13890000  0.20060000  0.47040000  1.0
  O2-  O20  1  0.42640000  0.19340000  0.92590000  1.0
  O2-  O21  1  0.57360000  0.69340000  0.57410000  1.0
  O2-  O22  1  0.57360000  0.80660000  0.07410000  1.0
  O2-  O23  1  0.42640000  0.30660000  0.42590000  1.0
  O2-  O24  1  0.52120000  0.31030000  0.10880000  1.0
  O2-  O25  1  0.47880000  0.81030000  0.39120000  1.0
  O2-  O26  1  0.47880000  0.68970000  0.89120000  1.0
  O2-  O27  1  0.52120000  0.18970000  0.60880000  1.0
  O2-  O28  1  0.30210000  0.19140000  0.17260000  1.0
  O2-  O29  1  0.69790000  0.69140000  0.32740000  1.0
  O2-  O30  1  0.69790000  0.80860000  0.82740000  1.0
  O2-  O31  1  0.30210000  0.30860000  0.67260000  1.0
  O2-  O32  1  0.85860000  0.18880000  0.00440000  1.0
  O2-  O33  1  0.14140000  0.68880000  0.49560000  1.0
  O2-  O34  1  0.14140000  0.81120000  0.99560000  1.0
  O2-  O35  1  0.85860000  0.31120000  0.50440000  1.0
  O2-  O36  1  0.75290000  0.31120000  0.83810000  1.0
  O2-  O37  1  0.24710000  0.81120000  0.66190000  1.0
  O2-  O38  1  0.24710000  0.68880000  0.16190000  1.0
  O2-  O39  1  0.75290000  0.18880000  0.33810000  1.0
  O2-  O40  1  0.97460000  0.19850000  0.75710000  1.0
  O2-  O41  1  0.02540000  0.69850000  0.74290000  1.0
  O2-  O42  1  0.02540000  0.80150000  0.24290000  1.0
  O2-  O43  1  0.97460000  0.30150000  0.25710000  1.0
  O2-  O44  1  0.00470000  0.05050000  0.25190000  1.0
  O2-  O45  1  0.99530000  0.55050000  0.24810000  1.0
  O2-  O46  1  0.99530000  0.94950000  0.74810000  1.0
  O2-  O47  1  0.00470000  0.44950000  0.75190000  1.0
  O2-  O48  1  0.83920000  0.94770000  0.04120000  1.0
  O2-  O49  1  0.16080000  0.44770000  0.45880000  1.0
  O2-  O50  1  0.16080000  0.05230000  0.95880000  1.0
  O2-  O51  1  0.83920000  0.55230000  0.54120000  1.0
  O2-  O52  1  0.61950000  0.06140000  0.11940000  1.0
  O2-  O53  1  0.38050000  0.56140000  0.38060000  1.0
  O2-  O54  1  0.38050000  0.93860000  0.88060000  1.0
  O2-  O55  1  0.61950000  0.43860000  0.61940000  1.0
  O2-  O56  1  0.72540000  0.94010000  0.28980000  1.0
  O2-  O57  1  0.27460000  0.44010000  0.21020000  1.0
  O2-  O58  1  0.27460000  0.05990000  0.71020000  1.0
  O2-  O59  1  0.72540000  0.55990000  0.78980000  1.0
  O2-  O60  1  0.29200000  0.94510000  0.20980000  1.0
  O2-  O61  1  0.70800000  0.44510000  0.29020000  1.0
  O2-  O62  1  0.70800000  0.05490000  0.79020000  1.0
  O2-  O63  1  0.29200000  0.55490000  0.70980000  1.0
  O2-  O64  1  0.38530000  0.06250000  0.39050000  1.0
  O2-  O65  1  0.61470000  0.56250000  0.10950000  1.0
  O2-  O66  1  0.61470000  0.93750000  0.60950000  1.0
  O2-  O67  1  0.38530000  0.43750000  0.89050000  1.0
  O2-  O68  1  0.16760000  0.94430000  0.45570000  1.0
  O2-  O69  1  0.83240000  0.44430000  0.04430000  1.0
  O2-  O70  1  0.83240000  0.05570000  0.54430000  1.0
  O2-  O71  1  0.16760000  0.55570000  0.95570000  1.0
