# generated using pymatgen
data_Mn2O5
_symmetry_space_group_name_H-M   'P 1'
_cell_length_a   5.52300000
_cell_length_b   10.76100000
_cell_length_c   3.81100000
_cell_angle_alpha   90.00000000
_cell_angle_beta   90.00000000
_cell_angle_gamma   90.00000000
_symmetry_Int_Tables_number   1
_chemical_formula_structural   Mn2O5
_chemical_formula_sum   'Mn4 O10'
_cell_volume   226.49917443
_cell_formula_units_Z   2
loop_
 _symmetry_equiv_pos_site_id
 _symmetry_equiv_pos_as_xyz
  1  'x, y, z'
loop_
 _atom_type_symbol
 _atom_type_oxidation_number
  Mn3+  3.0
  O2-  -2.0
loop_
 _atom_site_type_symbol
 _atom_site_label
 _atom_site_symmetry_multiplicity
 _atom_site_fract_x
 _atom_site_fract_y
 _atom_site_fract_z
 _atom_site_occupancy
  Mn3+  Mn0  1  0.75830000  0.37640000  0.00000000  1.0
  Mn3+  Mn1  1  0.24170000  0.62360000  0.00000000  1.0
  Mn3+  Mn2  1  0.25830000  0.12360000  0.00000000  1.0
  Mn3+  Mn3  1  0.74170000  0.87640000  0.00000000  1.0
  O2-  O4  1  0.77900000  0.40880000  0.50000000  1.0
  O2-  O5  1  0.22100000  0.59120000  0.50000000  1.0
  O2-  O6  1  0.27900000  0.09120000  0.50000000  1.0
  O2-  O7  1  0.72100000  0.90880000  0.50000000  1.0
  O2-  O8  1  0.05300000  0.27410000  0.00000000  1.0
  O2-  O9  1  0.94700000  0.72590000  0.00000000  1.0
  O2-  O10  1  0.55300000  0.22590000  0.00000000  1.0
  O2-  O11  1  0.44700000  0.77410000  0.00000000  1.0
  O2-  O12  1  0.50000000  0.50000000  0.00000000  1.0
  O2-  O13  1  0.00000000  0.00000000  0.00000000  1.0
