# generated using pymatgen
data_Mn2O3
_symmetry_space_group_name_H-M   'P 1'
_cell_length_a   9.41040000
_cell_length_b   9.45090000
_cell_length_c   9.37060000
_cell_angle_alpha   90.00000000
_cell_angle_beta   90.00000000
_cell_angle_gamma   90.00000000
_symmetry_Int_Tables_number   1
_chemical_formula_structural   Mn2O3
_chemical_formula_sum   'Mn32 O48'
_cell_volume   833.39070355
_cell_formula_units_Z   16
loop_
 _symmetry_equiv_pos_site_id
 _symmetry_equiv_pos_as_xyz
  1  'x, y, z'
loop_
 _atom_type_symbol
 _atom_type_oxidation_number
  Mn3+  3.0
  O2-  -2.0
loop_
 _atom_site_type_symbol
 _atom_site_label
 _atom_site_symmetry_multiplicity
 _atom_site_fract_x
 _atom_site_fract_y
 _atom_site_fract_z
 _atom_site_occupancy
  Mn3+  Mn0  1  0.50000000  0.00000000  0.50000000  1.0
  Mn3+  Mn1  1  0.00000000  0.50000000  0.50000000  1.0
  Mn3+  Mn2  1  0.50000000  0.50000000  0.00000000  1.0
  Mn3+  Mn3  1  0.00000000  0.00000000  0.00000000  1.0
  Mn3+  Mn4  1  0.00000000  0.50000000  0.00000000  1.0
  Mn3+  Mn5  1  0.50000000  0.00000000  0.00000000  1.0
  Mn3+  Mn6  1  0.00000000  0.00000000  0.50000000  1.0
  Mn3+  Mn7  1  0.50000000  0.50000000  0.50000000  1.0
  Mn3+  Mn8  1  0.75980000  0.28540000  0.51050000  1.0
  Mn3+  Mn9  1  0.25980000  0.21460000  0.48950000  1.0
  Mn3+  Mn10  1  0.24020000  0.78540000  0.98950000  1.0
  Mn3+  Mn11  1  0.74020000  0.71460000  0.01050000  1.0
  Mn3+  Mn12  1  0.24020000  0.71460000  0.48950000  1.0
  Mn3+  Mn13  1  0.74020000  0.78540000  0.51050000  1.0
  Mn3+  Mn14  1  0.75980000  0.21460000  0.01050000  1.0
  Mn3+  Mn15  1  0.25980000  0.28540000  0.98950000  1.0
  Mn3+  Mn16  1  0.78670000  0.00170000  0.25640000  1.0
  Mn3+  Mn17  1  0.28670000  0.49830000  0.74360000  1.0
  Mn3+  Mn18  1  0.21330000  0.50170000  0.24360000  1.0
  Mn3+  Mn19  1  0.71330000  0.99830000  0.75640000  1.0
  Mn3+  Mn20  1  0.21330000  0.99830000  0.74360000  1.0
  Mn3+  Mn21  1  0.71330000  0.50170000  0.25640000  1.0
  Mn3+  Mn22  1  0.78670000  0.49830000  0.75640000  1.0
  Mn3+  Mn23  1  0.28670000  0.00170000  0.24360000  1.0
  Mn3+  Mn24  1  0.51270000  0.24560000  0.21730000  1.0
  Mn3+  Mn25  1  0.01270000  0.25440000  0.78270000  1.0
  Mn3+  Mn26  1  0.48730000  0.74560000  0.28270000  1.0
  Mn3+  Mn27  1  0.98730000  0.75440000  0.71730000  1.0
  Mn3+  Mn28  1  0.48730000  0.75440000  0.78270000  1.0
  Mn3+  Mn29  1  0.98730000  0.74560000  0.21730000  1.0
  Mn3+  Mn30  1  0.51270000  0.25440000  0.71730000  1.0
  Mn3+  Mn31  1  0.01270000  0.24560000  0.28270000  1.0
  O2-  O32  1  0.92530000  0.12410000  0.14890000  1.0
  O2-  O33  1  0.42530000  0.37590000  0.85110000  1.0
  O2-  O34  1  0.07470000  0.62410000  0.35110000  1.0
  O2-  O35  1  0.57470000  0.87590000  0.64890000  1.0
  O2-  O36  1  0.07470000  0.87590000  0.85110000  1.0
  O2-  O37  1  0.57470000  0.62410000  0.14890000  1.0
  O2-  O38  1  0.92530000  0.37590000  0.64890000  1.0
  O2-  O39  1  0.42530000  0.12410000  0.35110000  1.0
  O2-  O40  1  0.63990000  0.35090000  0.09320000  1.0
  O2-  O41  1  0.13990000  0.14910000  0.90680000  1.0
  O2-  O42  1  0.36010000  0.85090000  0.40680000  1.0
  O2-  O43  1  0.86010000  0.64910000  0.59320000  1.0
  O2-  O44  1  0.36010000  0.64910000  0.90680000  1.0
  O2-  O45  1  0.86010000  0.85090000  0.09320000  1.0
  O2-  O46  1  0.63990000  0.14910000  0.59320000  1.0
  O2-  O47  1  0.13990000  0.35090000  0.40680000  1.0
  O2-  O48  1  0.85790000  0.41750000  0.37820000  1.0
  O2-  O49  1  0.35790000  0.08250000  0.62180000  1.0
  O2-  O50  1  0.14210000  0.91750000  0.12180000  1.0
  O2-  O51  1  0.64210000  0.58250000  0.87820000  1.0
  O2-  O52  1  0.14210000  0.58250000  0.62180000  1.0
  O2-  O53  1  0.64210000  0.91750000  0.37820000  1.0
  O2-  O54  1  0.85790000  0.08250000  0.87820000  1.0
  O2-  O55  1  0.35790000  0.41750000  0.12180000  1.0
  O2-  O56  1  0.58380000  0.37250000  0.35980000  1.0
  O2-  O57  1  0.08380000  0.12750000  0.64020000  1.0
  O2-  O58  1  0.41620000  0.87250000  0.14020000  1.0
  O2-  O59  1  0.91620000  0.62750000  0.85980000  1.0
  O2-  O60  1  0.41620000  0.62750000  0.64020000  1.0
  O2-  O61  1  0.91620000  0.87250000  0.35980000  1.0
  O2-  O62  1  0.58380000  0.12750000  0.85980000  1.0
  O2-  O63  1  0.08380000  0.37250000  0.14020000  1.0
  O2-  O64  1  0.87970000  0.14770000  0.42110000  1.0
  O2-  O65  1  0.37970000  0.35230000  0.57890000  1.0
  O2-  O66  1  0.12030000  0.64770000  0.07890000  1.0
  O2-  O67  1  0.62030000  0.85230000  0.92110000  1.0
  O2-  O68  1  0.12030000  0.85230000  0.57890000  1.0
  O2-  O69  1  0.62030000  0.64770000  0.42110000  1.0
  O2-  O70  1  0.87970000  0.35230000  0.92110000  1.0
  O2-  O71  1  0.37970000  0.14770000  0.07890000  1.0
  O2-  O72  1  0.65540000  0.08820000  0.13910000  1.0
  O2-  O73  1  0.15540000  0.41180000  0.86090000  1.0
  O2-  O74  1  0.34460000  0.58820000  0.36090000  1.0
  O2-  O75  1  0.84460000  0.91180000  0.63910000  1.0
  O2-  O76  1  0.34460000  0.91180000  0.86090000  1.0
  O2-  O77  1  0.84460000  0.58820000  0.13910000  1.0
  O2-  O78  1  0.65540000  0.41180000  0.63910000  1.0
  O2-  O79  1  0.15540000  0.08820000  0.36090000  1.0
