# generated using pymatgen
data_Mn3O4
_symmetry_space_group_name_H-M   'P 1'
_cell_length_a   5.82500000
_cell_length_b   5.81100000
_cell_length_c   9.39500000
_cell_angle_alpha   90.00000000
_cell_angle_beta   90.00000000
_cell_angle_gamma   90.00000000
_symmetry_Int_Tables_number   1
_chemical_formula_structural   Mn3O4
_chemical_formula_sum   'Mn12 O16'
_cell_volume   318.01205962
_cell_formula_units_Z   4
loop_
 _symmetry_equiv_pos_site_id
 _symmetry_equiv_pos_as_xyz
  1  'x, y, z'
loop_
 _atom_type_symbol
 _atom_type_oxidation_number
  Mn0+  0.0
  O0+  0.0
loop_
 _atom_site_type_symbol
 _atom_site_label
 _atom_site_symmetry_multiplicity
 _atom_site_fract_x
 _atom_site_fract_y
 _atom_site_fract_z
 _atom_site_occupancy
  Mn0+  Mn0  1  0.50000000  0.25000000  0.12420000  1.0
  Mn0+  Mn1  1  0.50000000  0.75000000  0.87580000  1.0
  Mn0+  Mn2  1  0.00000000  0.75000000  0.62420000  1.0
  Mn0+  Mn3  1  0.00000000  0.25000000  0.37580000  1.0
  Mn0+  Mn4  1  0.00000000  0.50000000  0.00000000  1.0
  Mn0+  Mn5  1  0.00000000  0.00000000  0.00000000  1.0
  Mn0+  Mn6  1  0.50000000  0.00000000  0.50000000  1.0
  Mn0+  Mn7  1  0.50000000  0.50000000  0.50000000  1.0
  Mn0+  Mn8  1  0.75000000  0.75000000  0.25000000  1.0
  Mn0+  Mn9  1  0.75000000  0.25000000  0.75000000  1.0
  Mn0+  Mn10  1  0.25000000  0.25000000  0.75000000  1.0
  Mn0+  Mn11  1  0.25000000  0.75000000  0.25000000  1.0
  O0+  O12  1  0.00000000  0.02960000  0.75740000  1.0
  O0+  O13  1  0.00000000  0.97040000  0.24260000  1.0
  O0+  O14  1  0.00000000  0.52960000  0.24260000  1.0
  O0+  O15  1  0.00000000  0.47040000  0.75740000  1.0
  O0+  O16  1  0.50000000  0.52960000  0.25740000  1.0
  O0+  O17  1  0.50000000  0.47040000  0.74260000  1.0
  O0+  O18  1  0.50000000  0.02960000  0.74260000  1.0
  O0+  O19  1  0.50000000  0.97040000  0.25740000  1.0
  O0+  O20  1  0.78080000  0.25000000  0.99260000  1.0
  O0+  O21  1  0.78080000  0.75000000  0.00740000  1.0
  O0+  O22  1  0.21920000  0.75000000  0.00740000  1.0
  O0+  O23  1  0.21920000  0.25000000  0.99260000  1.0
  O0+  O24  1  0.28080000  0.75000000  0.49260000  1.0
  O0+  O25  1  0.28080000  0.25000000  0.50740000  1.0
  O0+  O26  1  0.71920000  0.25000000  0.50740000  1.0
  O0+  O27  1  0.71920000  0.75000000  0.49260000  1.0
