# generated using pymatgen
data_Mn5O8
_symmetry_space_group_name_H-M   'P 1'
_cell_length_a   10.34700000
_cell_length_b   5.72400000
_cell_length_c   4.85200000
_cell_angle_alpha   90.00000000
_cell_angle_beta   109.41000000
_cell_angle_gamma   90.00000000
_symmetry_Int_Tables_number   1
_chemical_formula_structural   Mn5O8
_chemical_formula_sum   'Mn10 O16'
_cell_volume   271.03313639
_cell_formula_units_Z   2
loop_
 _symmetry_equiv_pos_site_id
 _symmetry_equiv_pos_as_xyz
  1  'x, y, z'
loop_
 _atom_type_symbol
 _atom_type_oxidation_number
  Mn2+  2.0
  Mn4+  4.0
  O2-  -2.0
loop_
 _atom_site_type_symbol
 _atom_site_label
 _atom_site_symmetry_multiplicity
 _atom_site_fract_x
 _atom_site_fract_y
 _atom_site_fract_z
 _atom_site_occupancy
  Mn2+  Mn0  1  0.27000000  0.00000000  0.33800000  1.0
  Mn2+  Mn1  1  0.73000000  0.00000000  0.66200000  1.0
  Mn2+  Mn2  1  0.77000000  0.50000000  0.33800000  1.0
  Mn2+  Mn3  1  0.23000000  0.50000000  0.66200000  1.0
  Mn4+  Mn4  1  0.00000000  0.00000000  0.50000000  1.0
  Mn4+  Mn5  1  0.50000000  0.50000000  0.50000000  1.0
  Mn4+  Mn6  1  0.00000000  0.26200000  0.00000000  1.0
  Mn4+  Mn7  1  0.00000000  0.73800000  0.00000000  1.0
  Mn4+  Mn8  1  0.50000000  0.76200000  0.00000000  1.0
  Mn4+  Mn9  1  0.50000000  0.23800000  0.00000000  1.0
  O2-  O10  1  0.90200000  0.23400000  0.60600000  1.0
  O2-  O11  1  0.90200000  0.76600000  0.60600000  1.0
  O2-  O12  1  0.09800000  0.76600000  0.39400000  1.0
  O2-  O13  1  0.09800000  0.23400000  0.39400000  1.0
  O2-  O14  1  0.40200000  0.73400000  0.60600000  1.0
  O2-  O15  1  0.40200000  0.26600000  0.60600000  1.0
  O2-  O16  1  0.59800000  0.26600000  0.39400000  1.0
  O2-  O17  1  0.59800000  0.73400000  0.39400000  1.0
  O2-  O18  1  0.90700000  0.00000000  0.09500000  1.0
  O2-  O19  1  0.09300000  0.00000000  0.90500000  1.0
  O2-  O20  1  0.40700000  0.50000000  0.09500000  1.0
  O2-  O21  1  0.59300000  0.50000000  0.90500000  1.0
  O2-  O22  1  0.38900000  0.00000000  0.07500000  1.0
  O2-  O23  1  0.61100000  0.00000000  0.92500000  1.0
  O2-  O24  1  0.88900000  0.50000000  0.07500000  1.0
  O2-  O25  1  0.11100000  0.50000000  0.92500000  1.0
