# generated using pymatgen
data_Mn
_symmetry_space_group_name_H-M   'P 1'
_cell_length_a   10.84590000
_cell_length_b   10.84590000
_cell_length_c   10.84590000
_cell_angle_alpha   90.00000000
_cell_angle_beta   90.00000000
_cell_angle_gamma   90.00000000
_symmetry_Int_Tables_number   1
_chemical_formula_structural   Mn
_chemical_formula_sum   Mn88
_cell_volume   1275.84168535
_cell_formula_units_Z   88
loop_
 _symmetry_equiv_pos_site_id
 _symmetry_equiv_pos_as_xyz
  1  'x, y, z'
loop_
 _atom_type_symbol
 _atom_type_oxidation_number
  Mn0+  0.0
loop_
 _atom_site_type_symbol
 _atom_site_label
 _atom_site_symmetry_multiplicity
 _atom_site_fract_x
 _atom_site_fract_y
 _atom_site_fract_z
 _atom_site_occupancy
  Mn0+  Mn0  1  0.36470000  0.36470000  0.63530000  1.0
  Mn0+  Mn1  1  0.36470000  0.63530000  0.36470000  1.0
  Mn0+  Mn2  1  0.63530000  0.36470000  0.36470000  1.0
  Mn0+  Mn3  1  0.63530000  0.63530000  0.63530000  1.0
  Mn0+  Mn4  1  0.36470000  0.86470000  0.13530000  1.0
  Mn0+  Mn5  1  0.36470000  0.13530000  0.86470000  1.0
  Mn0+  Mn6  1  0.63530000  0.86470000  0.86470000  1.0
  Mn0+  Mn7  1  0.63530000  0.13530000  0.13530000  1.0
  Mn0+  Mn8  1  0.86470000  0.36470000  0.13530000  1.0
  Mn0+  Mn9  1  0.86470000  0.63530000  0.86470000  1.0
  Mn0+  Mn10  1  0.13530000  0.36470000  0.86470000  1.0
  Mn0+  Mn11  1  0.13530000  0.63530000  0.13530000  1.0
  Mn0+  Mn12  1  0.86470000  0.86470000  0.63530000  1.0
  Mn0+  Mn13  1  0.86470000  0.13530000  0.36470000  1.0
  Mn0+  Mn14  1  0.13530000  0.86470000  0.36470000  1.0
  Mn0+  Mn15  1  0.13530000  0.13530000  0.63530000  1.0
  Mn0+  Mn16  1  0.16000000  0.16000000  0.84000000  1.0
  Mn0+  Mn17  1  0.16000000  0.84000000  0.16000000  1.0
  Mn0+  Mn18  1  0.84000000  0.16000000  0.16000000  1.0
  Mn0+  Mn19  1  0.84000000  0.84000000  0.84000000  1.0
  Mn0+  Mn20  1  0.16000000  0.66000000  0.34000000  1.0
  Mn0+  Mn21  1  0.16000000  0.34000000  0.66000000  1.0
  Mn0+  Mn22  1  0.84000000  0.66000000  0.66000000  1.0
  Mn0+  Mn23  1  0.84000000  0.34000000  0.34000000  1.0
  Mn0+  Mn24  1  0.66000000  0.16000000  0.34000000  1.0
  Mn0+  Mn25  1  0.66000000  0.84000000  0.66000000  1.0
  Mn0+  Mn26  1  0.34000000  0.16000000  0.66000000  1.0
  Mn0+  Mn27  1  0.34000000  0.84000000  0.34000000  1.0
  Mn0+  Mn28  1  0.66000000  0.66000000  0.84000000  1.0
  Mn0+  Mn29  1  0.66000000  0.34000000  0.16000000  1.0
  Mn0+  Mn30  1  0.34000000  0.66000000  0.16000000  1.0
  Mn0+  Mn31  1  0.34000000  0.34000000  0.84000000  1.0
  Mn0+  Mn32  1  0.57360000  0.57360000  0.42640000  1.0
  Mn0+  Mn33  1  0.57360000  0.42640000  0.57360000  1.0
  Mn0+  Mn34  1  0.42640000  0.57360000  0.57360000  1.0
  Mn0+  Mn35  1  0.42640000  0.42640000  0.42640000  1.0
  Mn0+  Mn36  1  0.57360000  0.07360000  0.92640000  1.0
  Mn0+  Mn37  1  0.57360000  0.92640000  0.07360000  1.0
  Mn0+  Mn38  1  0.42640000  0.07360000  0.07360000  1.0
  Mn0+  Mn39  1  0.42640000  0.92640000  0.92640000  1.0
  Mn0+  Mn40  1  0.07360000  0.57360000  0.92640000  1.0
  Mn0+  Mn41  1  0.07360000  0.42640000  0.07360000  1.0
  Mn0+  Mn42  1  0.92640000  0.57360000  0.07360000  1.0
  Mn0+  Mn43  1  0.92640000  0.42640000  0.92640000  1.0
  Mn0+  Mn44  1  0.07360000  0.07360000  0.42640000  1.0
  Mn0+  Mn45  1  0.07360000  0.92640000  0.57360000  1.0
  Mn0+  Mn46  1  0.92640000  0.07360000  0.57360000  1.0
  Mn0+  Mn47  1  0.92640000  0.92640000  0.42640000  1.0
  Mn0+  Mn48  1  0.67280000  0.67280000  0.32720000  1.0
  Mn0+  Mn49  1  0.67280000  0.32720000  0.67280000  1.0
  Mn0+  Mn50  1  0.32720000  0.67280000  0.67280000  1.0
  Mn0+  Mn51  1  0.32720000  0.32720000  0.32720000  1.0
  Mn0+  Mn52  1  0.67280000  0.17280000  0.82720000  1.0
  Mn0+  Mn53  1  0.67280000  0.82720000  0.17280000  1.0
  Mn0+  Mn54  1  0.32720000  0.17280000  0.17280000  1.0
  Mn0+  Mn55  1  0.32720000  0.82720000  0.82720000  1.0
  Mn0+  Mn56  1  0.17280000  0.67280000  0.82720000  1.0
  Mn0+  Mn57  1  0.17280000  0.32720000  0.17280000  1.0
  Mn0+  Mn58  1  0.82720000  0.67280000  0.17280000  1.0
  Mn0+  Mn59  1  0.82720000  0.32720000  0.82720000  1.0
  Mn0+  Mn60  1  0.17280000  0.17280000  0.32720000  1.0
  Mn0+  Mn61  1  0.17280000  0.82720000  0.67280000  1.0
  Mn0+  Mn62  1  0.82720000  0.17280000  0.67280000  1.0
  Mn0+  Mn63  1  0.82720000  0.82720000  0.32720000  1.0
  Mn0+  Mn64  1  0.00000000  0.80740000  0.00000000  1.0
  Mn0+  Mn65  1  0.00000000  0.00000000  0.19260000  1.0
  Mn0+  Mn66  1  0.80740000  0.00000000  0.00000000  1.0
  Mn0+  Mn67  1  0.00000000  0.19260000  0.00000000  1.0
  Mn0+  Mn68  1  0.00000000  0.00000000  0.80740000  1.0
  Mn0+  Mn69  1  0.19260000  0.00000000  0.00000000  1.0
  Mn0+  Mn70  1  0.00000000  0.30740000  0.50000000  1.0
  Mn0+  Mn71  1  0.00000000  0.50000000  0.69260000  1.0
  Mn0+  Mn72  1  0.80740000  0.50000000  0.50000000  1.0
  Mn0+  Mn73  1  0.00000000  0.69260000  0.50000000  1.0
  Mn0+  Mn74  1  0.00000000  0.50000000  0.30740000  1.0
  Mn0+  Mn75  1  0.19260000  0.50000000  0.50000000  1.0
  Mn0+  Mn76  1  0.50000000  0.80740000  0.50000000  1.0
  Mn0+  Mn77  1  0.50000000  0.00000000  0.69260000  1.0
  Mn0+  Mn78  1  0.30740000  0.00000000  0.50000000  1.0
  Mn0+  Mn79  1  0.50000000  0.19260000  0.50000000  1.0
  Mn0+  Mn80  1  0.50000000  0.00000000  0.30740000  1.0
  Mn0+  Mn81  1  0.69260000  0.00000000  0.50000000  1.0
  Mn0+  Mn82  1  0.50000000  0.30740000  0.00000000  1.0
  Mn0+  Mn83  1  0.50000000  0.50000000  0.19260000  1.0
  Mn0+  Mn84  1  0.30740000  0.50000000  0.00000000  1.0
  Mn0+  Mn85  1  0.50000000  0.69260000  0.00000000  1.0
  Mn0+  Mn86  1  0.50000000  0.50000000  0.80740000  1.0
  Mn0+  Mn87  1  0.69260000  0.50000000  0.00000000  1.0
