# generated using pymatgen
data_Mn
_symmetry_space_group_name_H-M   'P 1'
_cell_length_a   8.91100000
_cell_length_b   8.91100000
_cell_length_c   8.91100000
_cell_angle_alpha   90.00000000
_cell_angle_beta   90.00000000
_cell_angle_gamma   90.00000000
_symmetry_Int_Tables_number   1
_chemical_formula_structural   Mn
_chemical_formula_sum   Mn58
_cell_volume   707.58616203
_cell_formula_units_Z   58
loop_
 _symmetry_equiv_pos_site_id
 _symmetry_equiv_pos_as_xyz
  1  'x, y, z'
loop_
 _atom_type_symbol
 _atom_type_oxidation_number
  Mn0+  0.0
loop_
 _atom_site_type_symbol
 _atom_site_label
 _atom_site_symmetry_multiplicity
 _atom_site_fract_x
 _atom_site_fract_y
 _atom_site_fract_z
 _atom_site_occupancy
  Mn0+  Mn0  1  0.00000000  0.00000000  0.00000000  1.0
  Mn0+  Mn1  1  0.50000000  0.50000000  0.50000000  1.0
  Mn0+  Mn2  1  0.68240000  0.68240000  0.31760000  1.0
  Mn0+  Mn3  1  0.68240000  0.31760000  0.68240000  1.0
  Mn0+  Mn4  1  0.31760000  0.68240000  0.68240000  1.0
  Mn0+  Mn5  1  0.31760000  0.31760000  0.31760000  1.0
  Mn0+  Mn6  1  0.18240000  0.18240000  0.81760000  1.0
  Mn0+  Mn7  1  0.18240000  0.81760000  0.18240000  1.0
  Mn0+  Mn8  1  0.81760000  0.18240000  0.18240000  1.0
  Mn0+  Mn9  1  0.81760000  0.81760000  0.81760000  1.0
  Mn0+  Mn10  1  0.96530000  0.64290000  0.35710000  1.0
  Mn0+  Mn11  1  0.64290000  0.64290000  0.03470000  1.0
  Mn0+  Mn12  1  0.64290000  0.96530000  0.35710000  1.0
  Mn0+  Mn13  1  0.96530000  0.35710000  0.64290000  1.0
  Mn0+  Mn14  1  0.64290000  0.35710000  0.96530000  1.0
  Mn0+  Mn15  1  0.64290000  0.03470000  0.64290000  1.0
  Mn0+  Mn16  1  0.03470000  0.64290000  0.64290000  1.0
  Mn0+  Mn17  1  0.35710000  0.64290000  0.96530000  1.0
  Mn0+  Mn18  1  0.35710000  0.96530000  0.64290000  1.0
  Mn0+  Mn19  1  0.03470000  0.35710000  0.35710000  1.0
  Mn0+  Mn20  1  0.35710000  0.35710000  0.03470000  1.0
  Mn0+  Mn21  1  0.35710000  0.03470000  0.35710000  1.0
  Mn0+  Mn22  1  0.46530000  0.14290000  0.85710000  1.0
  Mn0+  Mn23  1  0.14290000  0.14290000  0.53470000  1.0
  Mn0+  Mn24  1  0.14290000  0.46530000  0.85710000  1.0
  Mn0+  Mn25  1  0.46530000  0.85710000  0.14290000  1.0
  Mn0+  Mn26  1  0.14290000  0.85710000  0.46530000  1.0
  Mn0+  Mn27  1  0.14290000  0.53470000  0.14290000  1.0
  Mn0+  Mn28  1  0.53470000  0.14290000  0.14290000  1.0
  Mn0+  Mn29  1  0.85710000  0.14290000  0.46530000  1.0
  Mn0+  Mn30  1  0.85710000  0.46530000  0.14290000  1.0
  Mn0+  Mn31  1  0.53470000  0.85710000  0.85710000  1.0
  Mn0+  Mn32  1  0.85710000  0.85710000  0.53470000  1.0
  Mn0+  Mn33  1  0.85710000  0.53470000  0.85710000  1.0
  Mn0+  Mn34  1  0.71790000  0.91040000  0.08960000  1.0
  Mn0+  Mn35  1  0.91040000  0.91040000  0.28210000  1.0
  Mn0+  Mn36  1  0.91040000  0.71790000  0.08960000  1.0
  Mn0+  Mn37  1  0.71790000  0.08960000  0.91040000  1.0
  Mn0+  Mn38  1  0.91040000  0.08960000  0.71790000  1.0
  Mn0+  Mn39  1  0.91040000  0.28210000  0.91040000  1.0
  Mn0+  Mn40  1  0.28210000  0.91040000  0.91040000  1.0
  Mn0+  Mn41  1  0.08960000  0.91040000  0.71790000  1.0
  Mn0+  Mn42  1  0.08960000  0.71790000  0.91040000  1.0
  Mn0+  Mn43  1  0.28210000  0.08960000  0.08960000  1.0
  Mn0+  Mn44  1  0.08960000  0.08960000  0.28210000  1.0
  Mn0+  Mn45  1  0.08960000  0.28210000  0.08960000  1.0
  Mn0+  Mn46  1  0.21790000  0.41040000  0.58960000  1.0
  Mn0+  Mn47  1  0.41040000  0.41040000  0.78210000  1.0
  Mn0+  Mn48  1  0.41040000  0.21790000  0.58960000  1.0
  Mn0+  Mn49  1  0.21790000  0.58960000  0.41040000  1.0
  Mn0+  Mn50  1  0.41040000  0.58960000  0.21790000  1.0
  Mn0+  Mn51  1  0.41040000  0.78210000  0.41040000  1.0
  Mn0+  Mn52  1  0.78210000  0.41040000  0.41040000  1.0
  Mn0+  Mn53  1  0.58960000  0.41040000  0.21790000  1.0
  Mn0+  Mn54  1  0.58960000  0.21790000  0.41040000  1.0
  Mn0+  Mn55  1  0.78210000  0.58960000  0.58960000  1.0
  Mn0+  Mn56  1  0.58960000  0.58960000  0.78210000  1.0
  Mn0+  Mn57  1  0.58960000  0.78210000  0.58960000  1.0
