# generated using pymatgen
data_Mn
_symmetry_space_group_name_H-M   'P 1'
_cell_length_a   6.31500000
_cell_length_b   6.31500000
_cell_length_c   6.31500000
_cell_angle_alpha   90.00000000
_cell_angle_beta   90.00000000
_cell_angle_gamma   90.00000000
_symmetry_Int_Tables_number   1
_chemical_formula_structural   Mn
_chemical_formula_sum   Mn20
_cell_volume   251.83730588
_cell_formula_units_Z   20
loop_
 _symmetry_equiv_pos_site_id
 _symmetry_equiv_pos_as_xyz
  1  'x, y, z'
loop_
 _atom_type_symbol
 _atom_type_oxidation_number
  Mn0+  0.0
loop_
 _atom_site_type_symbol
 _atom_site_label
 _atom_site_symmetry_multiplicity
 _atom_site_fract_x
 _atom_site_fract_y
 _atom_site_fract_z
 _atom_site_occupancy
  Mn0+  Mn0  1  0.18640000  0.81360000  0.31360000  1.0
  Mn0+  Mn1  1  0.31360000  0.18640000  0.81360000  1.0
  Mn0+  Mn2  1  0.81360000  0.31360000  0.18640000  1.0
  Mn0+  Mn3  1  0.68640000  0.68640000  0.68640000  1.0
  Mn0+  Mn4  1  0.56360000  0.43640000  0.93640000  1.0
  Mn0+  Mn5  1  0.43640000  0.93640000  0.56360000  1.0
  Mn0+  Mn6  1  0.93640000  0.56360000  0.43640000  1.0
  Mn0+  Mn7  1  0.06360000  0.06360000  0.06360000  1.0
  Mn0+  Mn8  1  0.79780000  0.95220000  0.37500000  1.0
  Mn0+  Mn9  1  0.70220000  0.04780000  0.87500000  1.0
  Mn0+  Mn10  1  0.20220000  0.45220000  0.12500000  1.0
  Mn0+  Mn11  1  0.29780000  0.54780000  0.62500000  1.0
  Mn0+  Mn12  1  0.95220000  0.37500000  0.79780000  1.0
  Mn0+  Mn13  1  0.04780000  0.87500000  0.70220000  1.0
  Mn0+  Mn14  1  0.45220000  0.12500000  0.20220000  1.0
  Mn0+  Mn15  1  0.54780000  0.62500000  0.29780000  1.0
  Mn0+  Mn16  1  0.37500000  0.79780000  0.95220000  1.0
  Mn0+  Mn17  1  0.87500000  0.70220000  0.04780000  1.0
  Mn0+  Mn18  1  0.12500000  0.20220000  0.45220000  1.0
  Mn0+  Mn19  1  0.62500000  0.29780000  0.54780000  1.0
