# generated using pymatgen
data_MnF2
_symmetry_space_group_name_H-M   'P 1'
_cell_length_a   5.31800000
_cell_length_b   3.18900000
_cell_length_c   6.31100000
_cell_angle_alpha   90.00000000
_cell_angle_beta   90.00000000
_cell_angle_gamma   90.00000000
_symmetry_Int_Tables_number   1
_chemical_formula_structural   MnF2
_chemical_formula_sum   'Mn4 F8'
_cell_volume   107.02889272
_cell_formula_units_Z   4
loop_
 _symmetry_equiv_pos_site_id
 _symmetry_equiv_pos_as_xyz
  1  'x, y, z'
loop_
 _atom_type_symbol
 _atom_type_oxidation_number
  Mn0+  0.0
  F0+  0.0
loop_
 _atom_site_type_symbol
 _atom_site_label
 _atom_site_symmetry_multiplicity
 _atom_site_fract_x
 _atom_site_fract_y
 _atom_site_fract_z
 _atom_site_occupancy
  Mn0+  Mn0  1  0.74800000  0.25000000  0.12100000  1.0
  Mn0+  Mn1  1  0.24800000  0.25000000  0.37900000  1.0
  Mn0+  Mn2  1  0.25200000  0.75000000  0.87900000  1.0
  Mn0+  Mn3  1  0.75200000  0.75000000  0.62100000  1.0
  F0+  F4  1  0.02700000  0.25000000  0.66900000  1.0
  F0+  F5  1  0.52700000  0.25000000  0.83100000  1.0
  F0+  F6  1  0.97300000  0.75000000  0.33100000  1.0
  F0+  F7  1  0.47300000  0.75000000  0.16900000  1.0
  F0+  F8  1  0.64500000  0.25000000  0.43100000  1.0
  F0+  F9  1  0.14500000  0.25000000  0.06900000  1.0
  F0+  F10  1  0.35500000  0.75000000  0.56900000  1.0
  F0+  F11  1  0.85500000  0.75000000  0.93100000  1.0
