# generated using pymatgen
data_MnF2
_symmetry_space_group_name_H-M   'P 1'
_cell_length_a   5.20130000
_cell_length_b   5.20830000
_cell_length_c   5.20490000
_cell_angle_alpha   90.00000000
_cell_angle_beta   90.00000000
_cell_angle_gamma   90.00000000
_symmetry_Int_Tables_number   1
_chemical_formula_structural   MnF2
_chemical_formula_sum   'Mn4 F8'
_cell_volume   141.00038077
_cell_formula_units_Z   4
loop_
 _symmetry_equiv_pos_site_id
 _symmetry_equiv_pos_as_xyz
  1  'x, y, z'
loop_
 _atom_type_symbol
 _atom_type_oxidation_number
  Mn0+  0.0
  F0+  0.0
loop_
 _atom_site_type_symbol
 _atom_site_label
 _atom_site_symmetry_multiplicity
 _atom_site_fract_x
 _atom_site_fract_y
 _atom_site_fract_z
 _atom_site_occupancy
  Mn0+  Mn0  1  0.50000000  0.00000000  0.00000000  1.0
  Mn0+  Mn1  1  0.00000000  0.50000000  0.00000000  1.0
  Mn0+  Mn2  1  0.50000000  0.50000000  0.50000000  1.0
  Mn0+  Mn3  1  0.00000000  0.00000000  0.50000000  1.0
  F0+  F4  1  0.34050000  0.83960000  0.65960000  1.0
  F0+  F5  1  0.84050000  0.66040000  0.34040000  1.0
  F0+  F6  1  0.65950000  0.33960000  0.84040000  1.0
  F0+  F7  1  0.15950000  0.16040000  0.15960000  1.0
  F0+  F8  1  0.65950000  0.16040000  0.34040000  1.0
  F0+  F9  1  0.15950000  0.33960000  0.65960000  1.0
  F0+  F10  1  0.34050000  0.66040000  0.15960000  1.0
  F0+  F11  1  0.84050000  0.83960000  0.84040000  1.0
