# generated using pymatgen
data_MnF2
_symmetry_space_group_name_H-M   'P 1'
_cell_length_a   10.09700000
_cell_length_b   5.27200000
_cell_length_c   5.10200000
_cell_angle_alpha   90.00000000
_cell_angle_beta   90.00000000
_cell_angle_gamma   90.00000000
_symmetry_Int_Tables_number   1
_chemical_formula_structural   MnF2
_chemical_formula_sum   'Mn8 F16'
_cell_volume   271.58652117
_cell_formula_units_Z   8
loop_
 _symmetry_equiv_pos_site_id
 _symmetry_equiv_pos_as_xyz
  1  'x, y, z'
loop_
 _atom_type_symbol
 _atom_type_oxidation_number
  Mn0+  0.0
  F0+  0.0
loop_
 _atom_site_type_symbol
 _atom_site_label
 _atom_site_symmetry_multiplicity
 _atom_site_fract_x
 _atom_site_fract_y
 _atom_site_fract_z
 _atom_site_occupancy
  Mn0+  Mn0  1  0.38400000  0.03400000  0.23300000  1.0
  Mn0+  Mn1  1  0.88400000  0.46600000  0.76700000  1.0
  Mn0+  Mn2  1  0.61600000  0.53400000  0.26700000  1.0
  Mn0+  Mn3  1  0.11600000  0.96600000  0.73300000  1.0
  Mn0+  Mn4  1  0.61600000  0.96600000  0.76700000  1.0
  Mn0+  Mn5  1  0.11600000  0.53400000  0.23300000  1.0
  Mn0+  Mn6  1  0.38400000  0.46600000  0.73300000  1.0
  Mn0+  Mn7  1  0.88400000  0.03400000  0.26700000  1.0
  F0+  F8  1  0.29400000  0.38100000  0.35400000  1.0
  F0+  F9  1  0.79400000  0.11900000  0.64600000  1.0
  F0+  F10  1  0.70600000  0.88100000  0.14600000  1.0
  F0+  F11  1  0.20600000  0.61900000  0.85400000  1.0
  F0+  F12  1  0.70600000  0.61900000  0.64600000  1.0
  F0+  F13  1  0.20600000  0.88100000  0.35400000  1.0
  F0+  F14  1  0.29400000  0.11900000  0.85400000  1.0
  F0+  F15  1  0.79400000  0.38100000  0.14600000  1.0
  F0+  F16  1  0.47200000  0.73700000  0.99900000  1.0
  F0+  F17  1  0.97200000  0.76300000  0.00100000  1.0
  F0+  F18  1  0.52800000  0.23700000  0.50100000  1.0
  F0+  F19  1  0.02800000  0.26300000  0.49900000  1.0
  F0+  F20  1  0.52800000  0.26300000  0.00100000  1.0
  F0+  F21  1  0.02800000  0.23700000  0.99900000  1.0
  F0+  F22  1  0.47200000  0.76300000  0.49900000  1.0
  F0+  F23  1  0.97200000  0.73700000  0.50100000  1.0
