# generated using pymatgen
data_MnF2
_symmetry_space_group_name_H-M   'P 1'
_cell_length_a   4.93840000
_cell_length_b   5.83140000
_cell_length_c   5.38230000
_cell_angle_alpha   90.00000000
_cell_angle_beta   90.00000000
_cell_angle_gamma   90.00000000
_symmetry_Int_Tables_number   1
_chemical_formula_structural   MnF2
_chemical_formula_sum   'Mn4 F8'
_cell_volume   154.99832230
_cell_formula_units_Z   4
loop_
 _symmetry_equiv_pos_site_id
 _symmetry_equiv_pos_as_xyz
  1  'x, y, z'
loop_
 _atom_type_symbol
 _atom_type_oxidation_number
  Mn0+  0.0
  F0+  0.0
loop_
 _atom_site_type_symbol
 _atom_site_label
 _atom_site_symmetry_multiplicity
 _atom_site_fract_x
 _atom_site_fract_y
 _atom_site_fract_z
 _atom_site_occupancy
  Mn0+  Mn0  1  0.00000000  0.32940000  0.75000000  1.0
  Mn0+  Mn1  1  0.50000000  0.17060000  0.25000000  1.0
  Mn0+  Mn2  1  0.00000000  0.67060000  0.25000000  1.0
  Mn0+  Mn3  1  0.50000000  0.82940000  0.75000000  1.0
  F0+  F4  1  0.26810000  0.89630000  0.07710000  1.0
  F0+  F5  1  0.23190000  0.60370000  0.57710000  1.0
  F0+  F6  1  0.76810000  0.60370000  0.92290000  1.0
  F0+  F7  1  0.73190000  0.89630000  0.42290000  1.0
  F0+  F8  1  0.73190000  0.10370000  0.92290000  1.0
  F0+  F9  1  0.76810000  0.39630000  0.42290000  1.0
  F0+  F10  1  0.23190000  0.39630000  0.07710000  1.0
  F0+  F11  1  0.26810000  0.10370000  0.57710000  1.0
