# generated using pymatgen
data_MnO3
_symmetry_space_group_name_H-M   'P 1'
_cell_length_a   5.45360000
_cell_length_b   7.69080000
_cell_length_c   5.47100000
_cell_angle_alpha   90.00000000
_cell_angle_beta   90.00000000
_cell_angle_gamma   90.00000000
_symmetry_Int_Tables_number   1
_chemical_formula_structural   MnO3
_chemical_formula_sum   'Mn4 O12'
_cell_volume   229.46767398
_cell_formula_units_Z   4
loop_
 _symmetry_equiv_pos_site_id
 _symmetry_equiv_pos_as_xyz
  1  'x, y, z'
loop_
 _atom_type_symbol
 _atom_type_oxidation_number
  Mn3.65+  3.65
  O2-  -2.0
loop_
 _atom_site_type_symbol
 _atom_site_label
 _atom_site_symmetry_multiplicity
 _atom_site_fract_x
 _atom_site_fract_y
 _atom_site_fract_z
 _atom_site_occupancy
  Mn3.65+  Mn0  1  0.00000000  0.50000000  0.00000000  1.0
  Mn3.65+  Mn1  1  0.00000000  0.00000000  0.00000000  1.0
  Mn3.65+  Mn2  1  0.50000000  0.00000000  0.50000000  1.0
  Mn3.65+  Mn3  1  0.50000000  0.50000000  0.50000000  1.0
  O2-  O4  1  0.00000000  0.75000000  0.95930000  1.0
  O2-  O5  1  0.00000000  0.25000000  0.04070000  1.0
  O2-  O6  1  0.50000000  0.25000000  0.45930000  1.0
  O2-  O7  1  0.50000000  0.75000000  0.54070000  1.0
  O2-  O8  1  0.75000000  0.47420000  0.75000000  1.0
  O2-  O9  1  0.75000000  0.52580000  0.25000000  1.0
  O2-  O10  1  0.75000000  0.97420000  0.25000000  1.0
  O2-  O11  1  0.75000000  0.02580000  0.75000000  1.0
  O2-  O12  1  0.25000000  0.52580000  0.25000000  1.0
  O2-  O13  1  0.25000000  0.47420000  0.75000000  1.0
  O2-  O14  1  0.25000000  0.02580000  0.75000000  1.0
  O2-  O15  1  0.25000000  0.97420000  0.25000000  1.0
