# generated using pymatgen
data_Ti21Mn25
_symmetry_space_group_name_H-M   'P 1'
_cell_length_a   23.59600000
_cell_length_b   23.59600000
_cell_length_c   8.03500000
_cell_angle_alpha   90.00000000
_cell_angle_beta   90.00000000
_cell_angle_gamma   120.00000000
_symmetry_Int_Tables_number   1
_chemical_formula_structural   Ti21Mn25
_chemical_formula_sum   'Ti126 Mn150'
_cell_volume   3874.30036782
_cell_formula_units_Z   6
loop_
 _symmetry_equiv_pos_site_id
 _symmetry_equiv_pos_as_xyz
  1  'x, y, z'
loop_
 _atom_type_symbol
 _atom_type_oxidation_number
  Ti0+  0.0
  Mn0+  0.0
loop_
 _atom_site_type_symbol
 _atom_site_label
 _atom_site_symmetry_multiplicity
 _atom_site_fract_x
 _atom_site_fract_y
 _atom_site_fract_z
 _atom_site_occupancy
  Ti0+  Ti0  1  0.69300000  0.00000000  0.25000000  1.0
  Ti0+  Ti1  1  0.30700000  0.30700000  0.25000000  1.0
  Ti0+  Ti2  1  0.00000000  0.69300000  0.25000000  1.0
  Ti0+  Ti3  1  0.69300000  0.69300000  0.75000000  1.0
  Ti0+  Ti4  1  0.00000000  0.30700000  0.75000000  1.0
  Ti0+  Ti5  1  0.30700000  0.00000000  0.75000000  1.0
  Ti0+  Ti6  1  0.35966667  0.33333333  0.58333333  1.0
  Ti0+  Ti7  1  0.97366667  0.64033333  0.58333333  1.0
  Ti0+  Ti8  1  0.66666667  0.02633333  0.58333333  1.0
  Ti0+  Ti9  1  0.35966667  0.02633333  0.08333333  1.0
  Ti0+  Ti10  1  0.66666667  0.64033333  0.08333333  1.0
  Ti0+  Ti11  1  0.97366667  0.33333333  0.08333333  1.0
  Ti0+  Ti12  1  0.02633333  0.66666667  0.91666667  1.0
  Ti0+  Ti13  1  0.64033333  0.97366667  0.91666667  1.0
  Ti0+  Ti14  1  0.33333333  0.35966667  0.91666667  1.0
  Ti0+  Ti15  1  0.02633333  0.35966667  0.41666667  1.0
  Ti0+  Ti16  1  0.33333333  0.97366667  0.41666667  1.0
  Ti0+  Ti17  1  0.64033333  0.66666667  0.41666667  1.0
  Ti0+  Ti18  1  0.77100000  0.76900000  0.45800000  1.0
  Ti0+  Ti19  1  0.99800000  0.22900000  0.45800000  1.0
  Ti0+  Ti20  1  0.23100000  0.00200000  0.45800000  1.0
  Ti0+  Ti21  1  0.77100000  0.00200000  0.95800000  1.0
  Ti0+  Ti22  1  0.23100000  0.22900000  0.95800000  1.0
  Ti0+  Ti23  1  0.99800000  0.76900000  0.95800000  1.0
  Ti0+  Ti24  1  0.22900000  0.23100000  0.54200000  1.0
  Ti0+  Ti25  1  0.00200000  0.77100000  0.54200000  1.0
  Ti0+  Ti26  1  0.76900000  0.99800000  0.54200000  1.0
  Ti0+  Ti27  1  0.22900000  0.99800000  0.04200000  1.0
  Ti0+  Ti28  1  0.76900000  0.77100000  0.04200000  1.0
  Ti0+  Ti29  1  0.00200000  0.23100000  0.04200000  1.0
  Ti0+  Ti30  1  0.43766667  0.10233333  0.79133333  1.0
  Ti0+  Ti31  1  0.66466667  0.56233333  0.79133333  1.0
  Ti0+  Ti32  1  0.89766667  0.33533333  0.79133333  1.0
  Ti0+  Ti33  1  0.43766667  0.33533333  0.29133333  1.0
  Ti0+  Ti34  1  0.89766667  0.56233333  0.29133333  1.0
  Ti0+  Ti35  1  0.66466667  0.10233333  0.29133333  1.0
  Ti0+  Ti36  1  0.89566667  0.56433333  0.87533333  1.0
  Ti0+  Ti37  1  0.66866667  0.10433333  0.87533333  1.0
  Ti0+  Ti38  1  0.43566667  0.33133333  0.87533333  1.0
  Ti0+  Ti39  1  0.89566667  0.33133333  0.37533333  1.0
  Ti0+  Ti40  1  0.43566667  0.10433333  0.37533333  1.0
  Ti0+  Ti41  1  0.66866667  0.56433333  0.37533333  1.0
  Ti0+  Ti42  1  0.10433333  0.43566667  0.12466667  1.0
  Ti0+  Ti43  1  0.33133333  0.89566667  0.12466667  1.0
  Ti0+  Ti44  1  0.56433333  0.66866667  0.12466667  1.0
  Ti0+  Ti45  1  0.10433333  0.66866667  0.62466667  1.0
  Ti0+  Ti46  1  0.56433333  0.89566667  0.62466667  1.0
  Ti0+  Ti47  1  0.33133333  0.43566667  0.62466667  1.0
  Ti0+  Ti48  1  0.56233333  0.89766667  0.20866667  1.0
  Ti0+  Ti49  1  0.33533333  0.43766667  0.20866667  1.0
  Ti0+  Ti50  1  0.10233333  0.66466667  0.20866667  1.0
  Ti0+  Ti51  1  0.56233333  0.66466667  0.70866667  1.0
  Ti0+  Ti52  1  0.10233333  0.43766667  0.70866667  1.0
  Ti0+  Ti53  1  0.33533333  0.89766667  0.70866667  1.0
  Ti0+  Ti54  1  0.00000000  0.88400000  0.43400000  1.0
  Ti0+  Ti55  1  0.88400000  0.00000000  0.43400000  1.0
  Ti0+  Ti56  1  0.11600000  0.11600000  0.43400000  1.0
  Ti0+  Ti57  1  0.00000000  0.11600000  0.93400000  1.0
  Ti0+  Ti58  1  0.11600000  0.00000000  0.93400000  1.0
  Ti0+  Ti59  1  0.88400000  0.88400000  0.93400000  1.0
  Ti0+  Ti60  1  0.00000000  0.11600000  0.56600000  1.0
  Ti0+  Ti61  1  0.11600000  0.00000000  0.56600000  1.0
  Ti0+  Ti62  1  0.88400000  0.88400000  0.56600000  1.0
  Ti0+  Ti63  1  0.00000000  0.88400000  0.06600000  1.0
  Ti0+  Ti64  1  0.88400000  0.00000000  0.06600000  1.0
  Ti0+  Ti65  1  0.11600000  0.11600000  0.06600000  1.0
  Ti0+  Ti66  1  0.66666667  0.21733333  0.76733333  1.0
  Ti0+  Ti67  1  0.55066667  0.33333333  0.76733333  1.0
  Ti0+  Ti68  1  0.78266667  0.44933333  0.76733333  1.0
  Ti0+  Ti69  1  0.66666667  0.44933333  0.26733333  1.0
  Ti0+  Ti70  1  0.78266667  0.33333333  0.26733333  1.0
  Ti0+  Ti71  1  0.55066667  0.21733333  0.26733333  1.0
  Ti0+  Ti72  1  0.66666667  0.44933333  0.89933333  1.0
  Ti0+  Ti73  1  0.78266667  0.33333333  0.89933333  1.0
  Ti0+  Ti74  1  0.55066667  0.21733333  0.89933333  1.0
  Ti0+  Ti75  1  0.66666667  0.21733333  0.39933333  1.0
  Ti0+  Ti76  1  0.55066667  0.33333333  0.39933333  1.0
  Ti0+  Ti77  1  0.78266667  0.44933333  0.39933333  1.0
  Ti0+  Ti78  1  0.33333333  0.55066667  0.10066667  1.0
  Ti0+  Ti79  1  0.21733333  0.66666667  0.10066667  1.0
  Ti0+  Ti80  1  0.44933333  0.78266667  0.10066667  1.0
  Ti0+  Ti81  1  0.33333333  0.78266667  0.60066667  1.0
  Ti0+  Ti82  1  0.44933333  0.66666667  0.60066667  1.0
  Ti0+  Ti83  1  0.21733333  0.55066667  0.60066667  1.0
  Ti0+  Ti84  1  0.33333333  0.78266667  0.23266667  1.0
  Ti0+  Ti85  1  0.44933333  0.66666667  0.23266667  1.0
  Ti0+  Ti86  1  0.21733333  0.55066667  0.23266667  1.0
  Ti0+  Ti87  1  0.33333333  0.55066667  0.73266667  1.0
  Ti0+  Ti88  1  0.21733333  0.66666667  0.73266667  1.0
  Ti0+  Ti89  1  0.44933333  0.78266667  0.73266667  1.0
  Ti0+  Ti90  1  0.20500000  0.89200000  0.25200000  1.0
  Ti0+  Ti91  1  0.68700000  0.79500000  0.25200000  1.0
  Ti0+  Ti92  1  0.10800000  0.31300000  0.25200000  1.0
  Ti0+  Ti93  1  0.20500000  0.31300000  0.75200000  1.0
  Ti0+  Ti94  1  0.10800000  0.79500000  0.75200000  1.0
  Ti0+  Ti95  1  0.68700000  0.89200000  0.75200000  1.0
  Ti0+  Ti96  1  0.79500000  0.10800000  0.74800000  1.0
  Ti0+  Ti97  1  0.31300000  0.20500000  0.74800000  1.0
  Ti0+  Ti98  1  0.89200000  0.68700000  0.74800000  1.0
  Ti0+  Ti99  1  0.79500000  0.68700000  0.24800000  1.0
  Ti0+  Ti100  1  0.89200000  0.20500000  0.24800000  1.0
  Ti0+  Ti101  1  0.31300000  0.10800000  0.24800000  1.0
  Ti0+  Ti102  1  0.87166667  0.22533333  0.58533333  1.0
  Ti0+  Ti103  1  0.35366667  0.12833333  0.58533333  1.0
  Ti0+  Ti104  1  0.77466667  0.64633333  0.58533333  1.0
  Ti0+  Ti105  1  0.87166667  0.64633333  0.08533333  1.0
  Ti0+  Ti106  1  0.77466667  0.12833333  0.08533333  1.0
  Ti0+  Ti107  1  0.35366667  0.22533333  0.08533333  1.0
  Ti0+  Ti108  1  0.46166667  0.44133333  0.08133333  1.0
  Ti0+  Ti109  1  0.97966667  0.53833333  0.08133333  1.0
  Ti0+  Ti110  1  0.55866667  0.02033333  0.08133333  1.0
  Ti0+  Ti111  1  0.46166667  0.02033333  0.58133333  1.0
  Ti0+  Ti112  1  0.55866667  0.53833333  0.58133333  1.0
  Ti0+  Ti113  1  0.97966667  0.44133333  0.58133333  1.0
  Ti0+  Ti114  1  0.53833333  0.55866667  0.91866667  1.0
  Ti0+  Ti115  1  0.02033333  0.46166667  0.91866667  1.0
  Ti0+  Ti116  1  0.44133333  0.97966667  0.91866667  1.0
  Ti0+  Ti117  1  0.53833333  0.97966667  0.41866667  1.0
  Ti0+  Ti118  1  0.44133333  0.46166667  0.41866667  1.0
  Ti0+  Ti119  1  0.02033333  0.55866667  0.41866667  1.0
  Ti0+  Ti120  1  0.12833333  0.77466667  0.41466667  1.0
  Ti0+  Ti121  1  0.64633333  0.87166667  0.41466667  1.0
  Ti0+  Ti122  1  0.22533333  0.35366667  0.41466667  1.0
  Ti0+  Ti123  1  0.12833333  0.35366667  0.91466667  1.0
  Ti0+  Ti124  1  0.22533333  0.87166667  0.91466667  1.0
  Ti0+  Ti125  1  0.64633333  0.77466667  0.91466667  1.0
  Mn0+  Mn126  1  0.00000000  0.00000000  0.50000000  1.0
  Mn0+  Mn127  1  0.00000000  0.00000000  0.00000000  1.0
  Mn0+  Mn128  1  0.66666667  0.33333333  0.83333333  1.0
  Mn0+  Mn129  1  0.66666667  0.33333333  0.33333333  1.0
  Mn0+  Mn130  1  0.33333333  0.66666667  0.16666667  1.0
  Mn0+  Mn131  1  0.33333333  0.66666667  0.66666667  1.0
  Mn0+  Mn132  1  0.06100000  0.00000000  0.25000000  1.0
  Mn0+  Mn133  1  0.93900000  0.93900000  0.25000000  1.0
  Mn0+  Mn134  1  0.00000000  0.06100000  0.25000000  1.0
  Mn0+  Mn135  1  0.06100000  0.06100000  0.75000000  1.0
  Mn0+  Mn136  1  0.00000000  0.93900000  0.75000000  1.0
  Mn0+  Mn137  1  0.93900000  0.00000000  0.75000000  1.0
  Mn0+  Mn138  1  0.72766667  0.33333333  0.58333333  1.0
  Mn0+  Mn139  1  0.60566667  0.27233333  0.58333333  1.0
  Mn0+  Mn140  1  0.66666667  0.39433333  0.58333333  1.0
  Mn0+  Mn141  1  0.72766667  0.39433333  0.08333333  1.0
  Mn0+  Mn142  1  0.66666667  0.27233333  0.08333333  1.0
  Mn0+  Mn143  1  0.60566667  0.33333333  0.08333333  1.0
  Mn0+  Mn144  1  0.39433333  0.66666667  0.91666667  1.0
  Mn0+  Mn145  1  0.27233333  0.60566667  0.91666667  1.0
  Mn0+  Mn146  1  0.33333333  0.72766667  0.91666667  1.0
  Mn0+  Mn147  1  0.39433333  0.72766667  0.41666667  1.0
  Mn0+  Mn148  1  0.33333333  0.60566667  0.41666667  1.0
  Mn0+  Mn149  1  0.27233333  0.66666667  0.41666667  1.0
  Mn0+  Mn150  1  0.44500000  0.00000000  0.25000000  1.0
  Mn0+  Mn151  1  0.55500000  0.55500000  0.25000000  1.0
  Mn0+  Mn152  1  0.00000000  0.44500000  0.25000000  1.0
  Mn0+  Mn153  1  0.44500000  0.44500000  0.75000000  1.0
  Mn0+  Mn154  1  0.00000000  0.55500000  0.75000000  1.0
  Mn0+  Mn155  1  0.55500000  0.00000000  0.75000000  1.0
  Mn0+  Mn156  1  0.11166667  0.33333333  0.58333333  1.0
  Mn0+  Mn157  1  0.22166667  0.88833333  0.58333333  1.0
  Mn0+  Mn158  1  0.66666667  0.77833333  0.58333333  1.0
  Mn0+  Mn159  1  0.11166667  0.77833333  0.08333333  1.0
  Mn0+  Mn160  1  0.66666667  0.88833333  0.08333333  1.0
  Mn0+  Mn161  1  0.22166667  0.33333333  0.08333333  1.0
  Mn0+  Mn162  1  0.77833333  0.66666667  0.91666667  1.0
  Mn0+  Mn163  1  0.88833333  0.22166667  0.91666667  1.0
  Mn0+  Mn164  1  0.33333333  0.11166667  0.91666667  1.0
  Mn0+  Mn165  1  0.77833333  0.11166667  0.41666667  1.0
  Mn0+  Mn166  1  0.33333333  0.22166667  0.41666667  1.0
  Mn0+  Mn167  1  0.88833333  0.66666667  0.41666667  1.0
  Mn0+  Mn168  1  0.88000000  0.82200000  0.25200000  1.0
  Mn0+  Mn169  1  0.94200000  0.12000000  0.25200000  1.0
  Mn0+  Mn170  1  0.17800000  0.05800000  0.25200000  1.0
  Mn0+  Mn171  1  0.88000000  0.05800000  0.75200000  1.0
  Mn0+  Mn172  1  0.17800000  0.12000000  0.75200000  1.0
  Mn0+  Mn173  1  0.94200000  0.82200000  0.75200000  1.0
  Mn0+  Mn174  1  0.12000000  0.17800000  0.74800000  1.0
  Mn0+  Mn175  1  0.05800000  0.88000000  0.74800000  1.0
  Mn0+  Mn176  1  0.82200000  0.94200000  0.74800000  1.0
  Mn0+  Mn177  1  0.12000000  0.94200000  0.24800000  1.0
  Mn0+  Mn178  1  0.82200000  0.88000000  0.24800000  1.0
  Mn0+  Mn179  1  0.05800000  0.17800000  0.24800000  1.0
  Mn0+  Mn180  1  0.54666667  0.15533333  0.58533333  1.0
  Mn0+  Mn181  1  0.60866667  0.45333333  0.58533333  1.0
  Mn0+  Mn182  1  0.84466667  0.39133333  0.58533333  1.0
  Mn0+  Mn183  1  0.54666667  0.39133333  0.08533333  1.0
  Mn0+  Mn184  1  0.84466667  0.45333333  0.08533333  1.0
  Mn0+  Mn185  1  0.60866667  0.15533333  0.08533333  1.0
  Mn0+  Mn186  1  0.78666667  0.51133333  0.08133333  1.0
  Mn0+  Mn187  1  0.72466667  0.21333333  0.08133333  1.0
  Mn0+  Mn188  1  0.48866667  0.27533333  0.08133333  1.0
  Mn0+  Mn189  1  0.78666667  0.27533333  0.58133333  1.0
  Mn0+  Mn190  1  0.48866667  0.21333333  0.58133333  1.0
  Mn0+  Mn191  1  0.72466667  0.51133333  0.58133333  1.0
  Mn0+  Mn192  1  0.21333333  0.48866667  0.91866667  1.0
  Mn0+  Mn193  1  0.27533333  0.78666667  0.91866667  1.0
  Mn0+  Mn194  1  0.51133333  0.72466667  0.91866667  1.0
  Mn0+  Mn195  1  0.21333333  0.72466667  0.41866667  1.0
  Mn0+  Mn196  1  0.51133333  0.78666667  0.41866667  1.0
  Mn0+  Mn197  1  0.27533333  0.48866667  0.41866667  1.0
  Mn0+  Mn198  1  0.45333333  0.84466667  0.41466667  1.0
  Mn0+  Mn199  1  0.39133333  0.54666667  0.41466667  1.0
  Mn0+  Mn200  1  0.15533333  0.60866667  0.41466667  1.0
  Mn0+  Mn201  1  0.45333333  0.60866667  0.91466667  1.0
  Mn0+  Mn202  1  0.15533333  0.54666667  0.91466667  1.0
  Mn0+  Mn203  1  0.39133333  0.84466667  0.91466667  1.0
  Mn0+  Mn204  1  0.05900000  0.82500000  0.25200000  1.0
  Mn0+  Mn205  1  0.76600000  0.94100000  0.25200000  1.0
  Mn0+  Mn206  1  0.17500000  0.23400000  0.25200000  1.0
  Mn0+  Mn207  1  0.05900000  0.23400000  0.75200000  1.0
  Mn0+  Mn208  1  0.17500000  0.94100000  0.75200000  1.0
  Mn0+  Mn209  1  0.76600000  0.82500000  0.75200000  1.0
  Mn0+  Mn210  1  0.94100000  0.17500000  0.74800000  1.0
  Mn0+  Mn211  1  0.23400000  0.05900000  0.74800000  1.0
  Mn0+  Mn212  1  0.82500000  0.76600000  0.74800000  1.0
  Mn0+  Mn213  1  0.94100000  0.76600000  0.24800000  1.0
  Mn0+  Mn214  1  0.82500000  0.05900000  0.24800000  1.0
  Mn0+  Mn215  1  0.23400000  0.17500000  0.24800000  1.0
  Mn0+  Mn216  1  0.72566667  0.15833333  0.58533333  1.0
  Mn0+  Mn217  1  0.43266667  0.27433333  0.58533333  1.0
  Mn0+  Mn218  1  0.84166667  0.56733333  0.58533333  1.0
  Mn0+  Mn219  1  0.72566667  0.56733333  0.08533333  1.0
  Mn0+  Mn220  1  0.84166667  0.27433333  0.08533333  1.0
  Mn0+  Mn221  1  0.43266667  0.15833333  0.08533333  1.0
  Mn0+  Mn222  1  0.60766667  0.50833333  0.08133333  1.0
  Mn0+  Mn223  1  0.90066667  0.39233333  0.08133333  1.0
  Mn0+  Mn224  1  0.49166667  0.09933333  0.08133333  1.0
  Mn0+  Mn225  1  0.60766667  0.09933333  0.58133333  1.0
  Mn0+  Mn226  1  0.49166667  0.39233333  0.58133333  1.0
  Mn0+  Mn227  1  0.90066667  0.50833333  0.58133333  1.0
  Mn0+  Mn228  1  0.39233333  0.49166667  0.91866667  1.0
  Mn0+  Mn229  1  0.09933333  0.60766667  0.91866667  1.0
  Mn0+  Mn230  1  0.50833333  0.90066667  0.91866667  1.0
  Mn0+  Mn231  1  0.39233333  0.90066667  0.41866667  1.0
  Mn0+  Mn232  1  0.50833333  0.60766667  0.41866667  1.0
  Mn0+  Mn233  1  0.09933333  0.49166667  0.41866667  1.0
  Mn0+  Mn234  1  0.27433333  0.84166667  0.41466667  1.0
  Mn0+  Mn235  1  0.56733333  0.72566667  0.41466667  1.0
  Mn0+  Mn236  1  0.15833333  0.43266667  0.41466667  1.0
  Mn0+  Mn237  1  0.27433333  0.43266667  0.91466667  1.0
  Mn0+  Mn238  1  0.15833333  0.72566667  0.91466667  1.0
  Mn0+  Mn239  1  0.56733333  0.84166667  0.91466667  1.0
  Mn0+  Mn240  1  0.11900000  0.88400000  0.50000000  1.0
  Mn0+  Mn241  1  0.76500000  0.88100000  0.50000000  1.0
  Mn0+  Mn242  1  0.11600000  0.23500000  0.50000000  1.0
  Mn0+  Mn243  1  0.11900000  0.23500000  0.00000000  1.0
  Mn0+  Mn244  1  0.11600000  0.88100000  0.00000000  1.0
  Mn0+  Mn245  1  0.76500000  0.88400000  0.00000000  1.0
  Mn0+  Mn246  1  0.88100000  0.11600000  0.50000000  1.0
  Mn0+  Mn247  1  0.23500000  0.11900000  0.50000000  1.0
  Mn0+  Mn248  1  0.88400000  0.76500000  0.50000000  1.0
  Mn0+  Mn249  1  0.88100000  0.76500000  0.00000000  1.0
  Mn0+  Mn250  1  0.88400000  0.11900000  0.00000000  1.0
  Mn0+  Mn251  1  0.23500000  0.11600000  0.00000000  1.0
  Mn0+  Mn252  1  0.78566667  0.21733333  0.83333333  1.0
  Mn0+  Mn253  1  0.43166667  0.21433333  0.83333333  1.0
  Mn0+  Mn254  1  0.78266667  0.56833333  0.83333333  1.0
  Mn0+  Mn255  1  0.78566667  0.56833333  0.33333333  1.0
  Mn0+  Mn256  1  0.78266667  0.21433333  0.33333333  1.0
  Mn0+  Mn257  1  0.43166667  0.21733333  0.33333333  1.0
  Mn0+  Mn258  1  0.54766667  0.44933333  0.83333333  1.0
  Mn0+  Mn259  1  0.90166667  0.45233333  0.83333333  1.0
  Mn0+  Mn260  1  0.55066667  0.09833333  0.83333333  1.0
  Mn0+  Mn261  1  0.54766667  0.09833333  0.33333333  1.0
  Mn0+  Mn262  1  0.55066667  0.45233333  0.33333333  1.0
  Mn0+  Mn263  1  0.90166667  0.44933333  0.33333333  1.0
  Mn0+  Mn264  1  0.45233333  0.55066667  0.16666667  1.0
  Mn0+  Mn265  1  0.09833333  0.54766667  0.16666667  1.0
  Mn0+  Mn266  1  0.44933333  0.90166667  0.16666667  1.0
  Mn0+  Mn267  1  0.45233333  0.90166667  0.66666667  1.0
  Mn0+  Mn268  1  0.44933333  0.54766667  0.66666667  1.0
  Mn0+  Mn269  1  0.09833333  0.55066667  0.66666667  1.0
  Mn0+  Mn270  1  0.21433333  0.78266667  0.16666667  1.0
  Mn0+  Mn271  1  0.56833333  0.78566667  0.16666667  1.0
  Mn0+  Mn272  1  0.21733333  0.43166667  0.16666667  1.0
  Mn0+  Mn273  1  0.21433333  0.43166667  0.66666667  1.0
  Mn0+  Mn274  1  0.21733333  0.78566667  0.66666667  1.0
  Mn0+  Mn275  1  0.56833333  0.78266667  0.66666667  1.0
