# generated using pymatgen
data_Ti3Mn3O
_symmetry_space_group_name_H-M   'P 1'
_cell_length_a   11.10000000
_cell_length_b   11.10000000
_cell_length_c   11.10000000
_cell_angle_alpha   90.00000000
_cell_angle_beta   90.00000000
_cell_angle_gamma   90.00000000
_symmetry_Int_Tables_number   1
_chemical_formula_structural   Ti3Mn3O
_chemical_formula_sum   'Ti48 Mn48 O16'
_cell_volume   1367.63100000
_cell_formula_units_Z   16
loop_
 _symmetry_equiv_pos_site_id
 _symmetry_equiv_pos_as_xyz
  1  'x, y, z'
loop_
 _atom_type_symbol
 _atom_type_oxidation_number
  Ti0+  0.0
  Mn0+  0.0
  O0+  0.0
loop_
 _atom_site_type_symbol
 _atom_site_label
 _atom_site_symmetry_multiplicity
 _atom_site_fract_x
 _atom_site_fract_y
 _atom_site_fract_z
 _atom_site_occupancy
  Ti0+  Ti0  1  0.25000000  0.25000000  0.06500000  1.0
  Ti0+  Ti1  1  0.25000000  0.43500000  0.25000000  1.0
  Ti0+  Ti2  1  0.43500000  0.25000000  0.25000000  1.0
  Ti0+  Ti3  1  0.25000000  0.25000000  0.43500000  1.0
  Ti0+  Ti4  1  0.25000000  0.06500000  0.25000000  1.0
  Ti0+  Ti5  1  0.06500000  0.25000000  0.25000000  1.0
  Ti0+  Ti6  1  0.00000000  0.00000000  0.18500000  1.0
  Ti0+  Ti7  1  0.00000000  0.81500000  0.00000000  1.0
  Ti0+  Ti8  1  0.81500000  0.00000000  0.00000000  1.0
  Ti0+  Ti9  1  0.00000000  0.00000000  0.81500000  1.0
  Ti0+  Ti10  1  0.00000000  0.18500000  0.00000000  1.0
  Ti0+  Ti11  1  0.18500000  0.00000000  0.00000000  1.0
  Ti0+  Ti12  1  0.25000000  0.75000000  0.56500000  1.0
  Ti0+  Ti13  1  0.25000000  0.93500000  0.75000000  1.0
  Ti0+  Ti14  1  0.43500000  0.75000000  0.75000000  1.0
  Ti0+  Ti15  1  0.25000000  0.75000000  0.93500000  1.0
  Ti0+  Ti16  1  0.25000000  0.56500000  0.75000000  1.0
  Ti0+  Ti17  1  0.06500000  0.75000000  0.75000000  1.0
  Ti0+  Ti18  1  0.00000000  0.50000000  0.68500000  1.0
  Ti0+  Ti19  1  0.00000000  0.31500000  0.50000000  1.0
  Ti0+  Ti20  1  0.81500000  0.50000000  0.50000000  1.0
  Ti0+  Ti21  1  0.00000000  0.50000000  0.31500000  1.0
  Ti0+  Ti22  1  0.00000000  0.68500000  0.50000000  1.0
  Ti0+  Ti23  1  0.18500000  0.50000000  0.50000000  1.0
  Ti0+  Ti24  1  0.75000000  0.25000000  0.56500000  1.0
  Ti0+  Ti25  1  0.75000000  0.43500000  0.75000000  1.0
  Ti0+  Ti26  1  0.93500000  0.25000000  0.75000000  1.0
  Ti0+  Ti27  1  0.75000000  0.25000000  0.93500000  1.0
  Ti0+  Ti28  1  0.75000000  0.06500000  0.75000000  1.0
  Ti0+  Ti29  1  0.56500000  0.25000000  0.75000000  1.0
  Ti0+  Ti30  1  0.50000000  0.00000000  0.68500000  1.0
  Ti0+  Ti31  1  0.50000000  0.81500000  0.50000000  1.0
  Ti0+  Ti32  1  0.31500000  0.00000000  0.50000000  1.0
  Ti0+  Ti33  1  0.50000000  0.00000000  0.31500000  1.0
  Ti0+  Ti34  1  0.50000000  0.18500000  0.50000000  1.0
  Ti0+  Ti35  1  0.68500000  0.00000000  0.50000000  1.0
  Ti0+  Ti36  1  0.75000000  0.75000000  0.06500000  1.0
  Ti0+  Ti37  1  0.75000000  0.93500000  0.25000000  1.0
  Ti0+  Ti38  1  0.93500000  0.75000000  0.25000000  1.0
  Ti0+  Ti39  1  0.75000000  0.75000000  0.43500000  1.0
  Ti0+  Ti40  1  0.75000000  0.56500000  0.25000000  1.0
  Ti0+  Ti41  1  0.56500000  0.75000000  0.25000000  1.0
  Ti0+  Ti42  1  0.50000000  0.50000000  0.18500000  1.0
  Ti0+  Ti43  1  0.50000000  0.31500000  0.00000000  1.0
  Ti0+  Ti44  1  0.31500000  0.50000000  0.00000000  1.0
  Ti0+  Ti45  1  0.50000000  0.50000000  0.81500000  1.0
  Ti0+  Ti46  1  0.50000000  0.68500000  0.00000000  1.0
  Ti0+  Ti47  1  0.68500000  0.50000000  0.00000000  1.0
  Mn0+  Mn48  1  0.87500000  0.87500000  0.62500000  1.0
  Mn0+  Mn49  1  0.87500000  0.62500000  0.87500000  1.0
  Mn0+  Mn50  1  0.62500000  0.87500000  0.87500000  1.0
  Mn0+  Mn51  1  0.62500000  0.62500000  0.62500000  1.0
  Mn0+  Mn52  1  0.37500000  0.37500000  0.62500000  1.0
  Mn0+  Mn53  1  0.37500000  0.62500000  0.37500000  1.0
  Mn0+  Mn54  1  0.62500000  0.37500000  0.37500000  1.0
  Mn0+  Mn55  1  0.87500000  0.37500000  0.12500000  1.0
  Mn0+  Mn56  1  0.87500000  0.12500000  0.37500000  1.0
  Mn0+  Mn57  1  0.62500000  0.12500000  0.12500000  1.0
  Mn0+  Mn58  1  0.37500000  0.87500000  0.12500000  1.0
  Mn0+  Mn59  1  0.37500000  0.12500000  0.87500000  1.0
  Mn0+  Mn60  1  0.12500000  0.87500000  0.37500000  1.0
  Mn0+  Mn61  1  0.12500000  0.62500000  0.12500000  1.0
  Mn0+  Mn62  1  0.12500000  0.37500000  0.87500000  1.0
  Mn0+  Mn63  1  0.12500000  0.12500000  0.62500000  1.0
  Mn0+  Mn64  1  0.08500000  0.08500000  0.41500000  1.0
  Mn0+  Mn65  1  0.08500000  0.41500000  0.08500000  1.0
  Mn0+  Mn66  1  0.41500000  0.08500000  0.08500000  1.0
  Mn0+  Mn67  1  0.41500000  0.41500000  0.41500000  1.0
  Mn0+  Mn68  1  0.16500000  0.16500000  0.83500000  1.0
  Mn0+  Mn69  1  0.16500000  0.83500000  0.16500000  1.0
  Mn0+  Mn70  1  0.83500000  0.16500000  0.16500000  1.0
  Mn0+  Mn71  1  0.83500000  0.83500000  0.83500000  1.0
  Mn0+  Mn72  1  0.08500000  0.58500000  0.91500000  1.0
  Mn0+  Mn73  1  0.08500000  0.91500000  0.58500000  1.0
  Mn0+  Mn74  1  0.41500000  0.58500000  0.58500000  1.0
  Mn0+  Mn75  1  0.41500000  0.91500000  0.91500000  1.0
  Mn0+  Mn76  1  0.16500000  0.66500000  0.33500000  1.0
  Mn0+  Mn77  1  0.16500000  0.33500000  0.66500000  1.0
  Mn0+  Mn78  1  0.83500000  0.66500000  0.66500000  1.0
  Mn0+  Mn79  1  0.83500000  0.33500000  0.33500000  1.0
  Mn0+  Mn80  1  0.58500000  0.08500000  0.91500000  1.0
  Mn0+  Mn81  1  0.58500000  0.41500000  0.58500000  1.0
  Mn0+  Mn82  1  0.91500000  0.08500000  0.58500000  1.0
  Mn0+  Mn83  1  0.91500000  0.41500000  0.91500000  1.0
  Mn0+  Mn84  1  0.66500000  0.16500000  0.33500000  1.0
  Mn0+  Mn85  1  0.66500000  0.83500000  0.66500000  1.0
  Mn0+  Mn86  1  0.33500000  0.16500000  0.66500000  1.0
  Mn0+  Mn87  1  0.33500000  0.83500000  0.33500000  1.0
  Mn0+  Mn88  1  0.58500000  0.58500000  0.41500000  1.0
  Mn0+  Mn89  1  0.58500000  0.91500000  0.08500000  1.0
  Mn0+  Mn90  1  0.91500000  0.58500000  0.08500000  1.0
  Mn0+  Mn91  1  0.91500000  0.91500000  0.41500000  1.0
  Mn0+  Mn92  1  0.66500000  0.66500000  0.83500000  1.0
  Mn0+  Mn93  1  0.66500000  0.33500000  0.16500000  1.0
  Mn0+  Mn94  1  0.33500000  0.66500000  0.16500000  1.0
  Mn0+  Mn95  1  0.33500000  0.33500000  0.83500000  1.0
  O0+  O96  1  0.37500000  0.37500000  0.12500000  1.0
  O0+  O97  1  0.37500000  0.12500000  0.37500000  1.0
  O0+  O98  1  0.12500000  0.37500000  0.37500000  1.0
  O0+  O99  1  0.12500000  0.12500000  0.12500000  1.0
  O0+  O100  1  0.87500000  0.87500000  0.12500000  1.0
  O0+  O101  1  0.87500000  0.12500000  0.87500000  1.0
  O0+  O102  1  0.12500000  0.87500000  0.87500000  1.0
  O0+  O103  1  0.37500000  0.87500000  0.62500000  1.0
  O0+  O104  1  0.37500000  0.62500000  0.87500000  1.0
  O0+  O105  1  0.12500000  0.62500000  0.62500000  1.0
  O0+  O106  1  0.87500000  0.37500000  0.62500000  1.0
  O0+  O107  1  0.87500000  0.62500000  0.37500000  1.0
  O0+  O108  1  0.62500000  0.37500000  0.87500000  1.0
  O0+  O109  1  0.62500000  0.12500000  0.62500000  1.0
  O0+  O110  1  0.62500000  0.87500000  0.37500000  1.0
  O0+  O111  1  0.62500000  0.62500000  0.12500000  1.0
