# generated using pymatgen
data_Ti3O
_symmetry_space_group_name_H-M   'P 1'
_cell_length_a   5.14180000
_cell_length_b   5.14180000
_cell_length_c   14.30800000
_cell_angle_alpha   90.00000000
_cell_angle_beta   90.00000000
_cell_angle_gamma   120.00000000
_symmetry_Int_Tables_number   1
_chemical_formula_structural   Ti3O
_chemical_formula_sum   'Ti18 O6'
_cell_volume   327.59700530
_cell_formula_units_Z   6
loop_
 _symmetry_equiv_pos_site_id
 _symmetry_equiv_pos_as_xyz
  1  'x, y, z'
loop_
 _atom_type_symbol
 _atom_type_oxidation_number
  Ti0.66+  0.66
  O2-  -2.0
loop_
 _atom_site_type_symbol
 _atom_site_label
 _atom_site_symmetry_multiplicity
 _atom_site_fract_x
 _atom_site_fract_y
 _atom_site_fract_z
 _atom_site_occupancy
  Ti0.66+  Ti0  1  0.00000000  0.33333333  0.92100000  1.0
  Ti0.66+  Ti1  1  0.66666667  0.66666667  0.92100000  1.0
  Ti0.66+  Ti2  1  0.33333333  0.00000000  0.92100000  1.0
  Ti0.66+  Ti3  1  0.66666667  0.00000000  0.07900000  1.0
  Ti0.66+  Ti4  1  0.33333333  0.33333333  0.07900000  1.0
  Ti0.66+  Ti5  1  0.00000000  0.66666667  0.07900000  1.0
  Ti0.66+  Ti6  1  0.33333333  0.33333333  0.74600000  1.0
  Ti0.66+  Ti7  1  0.66666667  0.00000000  0.74600000  1.0
  Ti0.66+  Ti8  1  0.00000000  0.66666667  0.74600000  1.0
  Ti0.66+  Ti9  1  0.66666667  0.66666667  0.25400000  1.0
  Ti0.66+  Ti10  1  0.00000000  0.33333333  0.25400000  1.0
  Ti0.66+  Ti11  1  0.33333333  0.00000000  0.25400000  1.0
  Ti0.66+  Ti12  1  0.00000000  0.33333333  0.58800000  1.0
  Ti0.66+  Ti13  1  0.66666667  0.66666667  0.58800000  1.0
  Ti0.66+  Ti14  1  0.33333333  0.00000000  0.58800000  1.0
  Ti0.66+  Ti15  1  0.66666667  0.00000000  0.41200000  1.0
  Ti0.66+  Ti16  1  0.33333333  0.33333333  0.41200000  1.0
  Ti0.66+  Ti17  1  0.00000000  0.66666667  0.41200000  1.0
  O2-  O18  1  0.00000000  0.00000000  0.50000000  1.0
  O2-  O19  1  0.33333333  0.66666667  0.50000000  1.0
  O2-  O20  1  0.66666667  0.33333333  0.83330000  1.0
  O2-  O21  1  0.66666667  0.33333333  0.16670000  1.0
  O2-  O22  1  0.33333333  0.66666667  0.83330000  1.0
  O2-  O23  1  0.33333333  0.66666667  0.16670000  1.0
