# generated using pymatgen
data_Ti3O5
_symmetry_space_group_name_H-M   'P 1'
_cell_length_a   3.74700000
_cell_length_b   9.46500000
_cell_length_c   9.71500000
_cell_angle_alpha   90.00000000
_cell_angle_beta   90.00000000
_cell_angle_gamma   90.00000000
_symmetry_Int_Tables_number   1
_chemical_formula_structural   Ti3O5
_chemical_formula_sum   'Ti12 O20'
_cell_volume   344.54592382
_cell_formula_units_Z   4
loop_
 _symmetry_equiv_pos_site_id
 _symmetry_equiv_pos_as_xyz
  1  'x, y, z'
loop_
 _atom_type_symbol
 _atom_type_oxidation_number
  Ti3+  3.0
  Ti4+  4.0
  O2-  -2.0
loop_
 _atom_site_type_symbol
 _atom_site_label
 _atom_site_symmetry_multiplicity
 _atom_site_fract_x
 _atom_site_fract_y
 _atom_site_fract_z
 _atom_site_occupancy
  Ti3+  Ti0  1  0.00000000  0.13200000  0.93900000  1.0
  Ti3+  Ti1  1  0.00000000  0.86800000  0.06100000  1.0
  Ti3+  Ti2  1  0.00000000  0.13200000  0.56100000  1.0
  Ti3+  Ti3  1  0.00000000  0.86800000  0.43900000  1.0
  Ti3+  Ti4  1  0.50000000  0.63200000  0.93900000  1.0
  Ti3+  Ti5  1  0.50000000  0.36800000  0.06100000  1.0
  Ti3+  Ti6  1  0.50000000  0.63200000  0.56100000  1.0
  Ti3+  Ti7  1  0.50000000  0.36800000  0.43900000  1.0
  Ti4+  Ti8  1  0.00000000  0.19500000  0.25000000  1.0
  Ti4+  Ti9  1  0.00000000  0.80500000  0.75000000  1.0
  Ti4+  Ti10  1  0.50000000  0.69500000  0.25000000  1.0
  Ti4+  Ti11  1  0.50000000  0.30500000  0.75000000  1.0
  O2-  O12  1  0.00000000  0.77700000  0.25000000  1.0
  O2-  O13  1  0.00000000  0.22300000  0.75000000  1.0
  O2-  O14  1  0.50000000  0.27700000  0.25000000  1.0
  O2-  O15  1  0.50000000  0.72300000  0.75000000  1.0
  O2-  O16  1  0.00000000  0.04300000  0.38400000  1.0
  O2-  O17  1  0.00000000  0.95700000  0.61600000  1.0
  O2-  O18  1  0.00000000  0.04300000  0.11600000  1.0
  O2-  O19  1  0.00000000  0.95700000  0.88400000  1.0
  O2-  O20  1  0.50000000  0.54300000  0.38400000  1.0
  O2-  O21  1  0.50000000  0.45700000  0.61600000  1.0
  O2-  O22  1  0.50000000  0.54300000  0.11600000  1.0
  O2-  O23  1  0.50000000  0.45700000  0.88400000  1.0
  O2-  O24  1  0.00000000  0.30400000  0.43800000  1.0
  O2-  O25  1  0.00000000  0.69600000  0.56200000  1.0
  O2-  O26  1  0.00000000  0.30400000  0.06200000  1.0
  O2-  O27  1  0.00000000  0.69600000  0.93800000  1.0
  O2-  O28  1  0.50000000  0.80400000  0.43800000  1.0
  O2-  O29  1  0.50000000  0.19600000  0.56200000  1.0
  O2-  O30  1  0.50000000  0.80400000  0.06200000  1.0
  O2-  O31  1  0.50000000  0.19600000  0.93800000  1.0
