# generated using pymatgen
data_Ti3O
_symmetry_space_group_name_H-M   'P 1'
_cell_length_a   5.06000000
_cell_length_b   5.06000000
_cell_length_c   9.56000000
_cell_angle_alpha   90.00000000
_cell_angle_beta   90.00000000
_cell_angle_gamma   120.00000000
_symmetry_Int_Tables_number   1
_chemical_formula_structural   Ti3O
_chemical_formula_sum   'Ti12 O4'
_cell_volume   211.97739835
_cell_formula_units_Z   4
loop_
 _symmetry_equiv_pos_site_id
 _symmetry_equiv_pos_as_xyz
  1  'x, y, z'
loop_
 _atom_type_symbol
 _atom_type_oxidation_number
  Ti0+  0.0
  O0+  0.0
loop_
 _atom_site_type_symbol
 _atom_site_label
 _atom_site_symmetry_multiplicity
 _atom_site_fract_x
 _atom_site_fract_y
 _atom_site_fract_z
 _atom_site_occupancy
  Ti0+  Ti0  1  0.66666667  0.00000000  0.38200000  1.0
  Ti0+  Ti1  1  0.33333333  0.33333333  0.38200000  1.0
  Ti0+  Ti2  1  0.00000000  0.66666667  0.38200000  1.0
  Ti0+  Ti3  1  0.33333333  0.33333333  0.88200000  1.0
  Ti0+  Ti4  1  0.00000000  0.66666667  0.88200000  1.0
  Ti0+  Ti5  1  0.66666667  0.00000000  0.88200000  1.0
  Ti0+  Ti6  1  0.33333333  0.00000000  0.61800000  1.0
  Ti0+  Ti7  1  0.66666667  0.66666667  0.61800000  1.0
  Ti0+  Ti8  1  0.00000000  0.33333333  0.61800000  1.0
  Ti0+  Ti9  1  0.66666667  0.66666667  0.11800000  1.0
  Ti0+  Ti10  1  0.00000000  0.33333333  0.11800000  1.0
  Ti0+  Ti11  1  0.33333333  0.00000000  0.11800000  1.0
  O0+  O12  1  0.00000000  0.00000000  0.25000000  1.0
  O0+  O13  1  0.00000000  0.00000000  0.75000000  1.0
  O0+  O14  1  0.00000000  0.00000000  0.50000000  1.0
  O0+  O15  1  0.00000000  0.00000000  0.00000000  1.0
