# generated using pymatgen
data_Ti3O5
_symmetry_space_group_name_H-M   'P 1'
_cell_length_a   9.96950000
_cell_length_b   5.07390000
_cell_length_c   7.18170000
_cell_angle_alpha   90.00000000
_cell_angle_beta   109.86330000
_cell_angle_gamma   90.00000000
_symmetry_Int_Tables_number   1
_chemical_formula_structural   Ti3O5
_chemical_formula_sum   'Ti12 O20'
_cell_volume   341.66783244
_cell_formula_units_Z   4
loop_
 _symmetry_equiv_pos_site_id
 _symmetry_equiv_pos_as_xyz
  1  'x, y, z'
loop_
 _atom_type_symbol
 _atom_type_oxidation_number
  Ti3.33+  3.33
  O2-  -2.0
loop_
 _atom_site_type_symbol
 _atom_site_label
 _atom_site_symmetry_multiplicity
 _atom_site_fract_x
 _atom_site_fract_y
 _atom_site_fract_z
 _atom_site_occupancy
  Ti3.33+  Ti0  1  0.62860000  0.48740000  0.41000000  1.0
  Ti3.33+  Ti1  1  0.62860000  0.51260000  0.91000000  1.0
  Ti3.33+  Ti2  1  0.37140000  0.51260000  0.59000000  1.0
  Ti3.33+  Ti3  1  0.37140000  0.48740000  0.09000000  1.0
  Ti3.33+  Ti4  1  0.12860000  0.98740000  0.91000000  1.0
  Ti3.33+  Ti5  1  0.12860000  0.01260000  0.41000000  1.0
  Ti3.33+  Ti6  1  0.87140000  0.01260000  0.09000000  1.0
  Ti3.33+  Ti7  1  0.87140000  0.98740000  0.59000000  1.0
  Ti3.33+  Ti8  1  0.00000000  0.50000000  0.50000000  1.0
  Ti3.33+  Ti9  1  0.00000000  0.50000000  0.00000000  1.0
  Ti3.33+  Ti10  1  0.50000000  0.00000000  0.00000000  1.0
  Ti3.33+  Ti11  1  0.50000000  0.00000000  0.50000000  1.0
  O2-  O12  1  0.81100000  0.33540000  0.46520000  1.0
  O2-  O13  1  0.81100000  0.66460000  0.96520000  1.0
  O2-  O14  1  0.18900000  0.66460000  0.53480000  1.0
  O2-  O15  1  0.18900000  0.33540000  0.03480000  1.0
  O2-  O16  1  0.31100000  0.83540000  0.96520000  1.0
  O2-  O17  1  0.31100000  0.16460000  0.46520000  1.0
  O2-  O18  1  0.68900000  0.16460000  0.03480000  1.0
  O2-  O19  1  0.68900000  0.83540000  0.53480000  1.0
  O2-  O20  1  0.91900000  0.84350000  0.36230000  1.0
  O2-  O21  1  0.91900000  0.15650000  0.86230000  1.0
  O2-  O22  1  0.08100000  0.15650000  0.63770000  1.0
  O2-  O23  1  0.08100000  0.84350000  0.13770000  1.0
  O2-  O24  1  0.41900000  0.34350000  0.86230000  1.0
  O2-  O25  1  0.41900000  0.65650000  0.36230000  1.0
  O2-  O26  1  0.58100000  0.65650000  0.13770000  1.0
  O2-  O27  1  0.58100000  0.34350000  0.63770000  1.0
  O2-  O28  1  0.00000000  0.31230000  0.25000000  1.0
  O2-  O29  1  0.00000000  0.68770000  0.75000000  1.0
  O2-  O30  1  0.50000000  0.81230000  0.75000000  1.0
  O2-  O31  1  0.50000000  0.18770000  0.25000000  1.0
