# generated using pymatgen
data_Ti3O7
_symmetry_space_group_name_H-M   'P 1'
_cell_length_a   16.03000000
_cell_length_b   3.75000000
_cell_length_c   9.19000000
_cell_angle_alpha   90.00000000
_cell_angle_beta   101.45000000
_cell_angle_gamma   90.00000000
_symmetry_Int_Tables_number   1
_chemical_formula_structural   Ti3O7
_chemical_formula_sum   'Ti12 O28'
_cell_volume   541.43950883
_cell_formula_units_Z   4
loop_
 _symmetry_equiv_pos_site_id
 _symmetry_equiv_pos_as_xyz
  1  'x, y, z'
loop_
 _atom_type_symbol
 _atom_type_oxidation_number
  Ti4+  4.0
  O2-  -2.0
loop_
 _atom_site_type_symbol
 _atom_site_label
 _atom_site_symmetry_multiplicity
 _atom_site_fract_x
 _atom_site_fract_y
 _atom_site_fract_z
 _atom_site_occupancy
  Ti4+  Ti0  1  0.76610000  0.00000000  0.78020000  1.0
  Ti4+  Ti1  1  0.23390000  0.00000000  0.21980000  1.0
  Ti4+  Ti2  1  0.26610000  0.50000000  0.78020000  1.0
  Ti4+  Ti3  1  0.73390000  0.50000000  0.21980000  1.0
  Ti4+  Ti4  1  0.78170000  0.00000000  0.45620000  1.0
  Ti4+  Ti5  1  0.21830000  0.00000000  0.54380000  1.0
  Ti4+  Ti6  1  0.28170000  0.50000000  0.45620000  1.0
  Ti4+  Ti7  1  0.71830000  0.50000000  0.54380000  1.0
  Ti4+  Ti8  1  0.80110000  0.00000000  0.15330000  1.0
  Ti4+  Ti9  1  0.19890000  0.00000000  0.84670000  1.0
  Ti4+  Ti10  1  0.30110000  0.50000000  0.15330000  1.0
  Ti4+  Ti11  1  0.69890000  0.50000000  0.84670000  1.0
  O2-  O12  1  0.79060000  0.00000000  0.95700000  1.0
  O2-  O13  1  0.20940000  0.00000000  0.04300000  1.0
  O2-  O14  1  0.29060000  0.50000000  0.95700000  1.0
  O2-  O15  1  0.70940000  0.50000000  0.04300000  1.0
  O2-  O16  1  0.80510000  0.00000000  0.67430000  1.0
  O2-  O17  1  0.19490000  0.00000000  0.32570000  1.0
  O2-  O18  1  0.30510000  0.50000000  0.67430000  1.0
  O2-  O19  1  0.69490000  0.50000000  0.32570000  1.0
  O2-  O20  1  0.82700000  0.00000000  0.37440000  1.0
  O2-  O21  1  0.17300000  0.00000000  0.62560000  1.0
  O2-  O22  1  0.32700000  0.50000000  0.37440000  1.0
  O2-  O23  1  0.67300000  0.50000000  0.62560000  1.0
  O2-  O24  1  0.86630000  0.00000000  0.13040000  1.0
  O2-  O25  1  0.13370000  0.00000000  0.86960000  1.0
  O2-  O26  1  0.36630000  0.50000000  0.13040000  1.0
  O2-  O27  1  0.63370000  0.50000000  0.86960000  1.0
  O2-  O28  1  0.71420000  0.00000000  0.87110000  1.0
  O2-  O29  1  0.28580000  0.00000000  0.12890000  1.0
  O2-  O30  1  0.21420000  0.50000000  0.87110000  1.0
  O2-  O31  1  0.78580000  0.50000000  0.12890000  1.0
  O2-  O32  1  0.73980000  0.00000000  0.58360000  1.0
  O2-  O33  1  0.26020000  0.00000000  0.41640000  1.0
  O2-  O34  1  0.23980000  0.50000000  0.58360000  1.0
  O2-  O35  1  0.76020000  0.50000000  0.41640000  1.0
  O2-  O36  1  0.75880000  0.00000000  0.25600000  1.0
  O2-  O37  1  0.24120000  0.00000000  0.74400000  1.0
  O2-  O38  1  0.25880000  0.50000000  0.25600000  1.0
  O2-  O39  1  0.74120000  0.50000000  0.74400000  1.0
