# generated using pymatgen
data_Ti4O5
_symmetry_space_group_name_H-M   'P 1'
_cell_length_a   6.59700000
_cell_length_b   6.59700000
_cell_length_c   4.17100000
_cell_angle_alpha   90.00000000
_cell_angle_beta   90.00000000
_cell_angle_gamma   90.00000000
_symmetry_Int_Tables_number   1
_chemical_formula_structural   Ti4O5
_chemical_formula_sum   'Ti8 O10'
_cell_volume   181.52362594
_cell_formula_units_Z   2
loop_
 _symmetry_equiv_pos_site_id
 _symmetry_equiv_pos_as_xyz
  1  'x, y, z'
loop_
 _atom_type_symbol
 _atom_type_oxidation_number
  Ti2.5+  2.5
  O2-  -2.0
loop_
 _atom_site_type_symbol
 _atom_site_label
 _atom_site_symmetry_multiplicity
 _atom_site_fract_x
 _atom_site_fract_y
 _atom_site_fract_z
 _atom_site_occupancy
  Ti2.5+  Ti0  1  0.80000000  0.60000000  0.00000000  1.0
  Ti2.5+  Ti1  1  0.20000000  0.40000000  0.00000000  1.0
  Ti2.5+  Ti2  1  0.60000000  0.20000000  0.00000000  1.0
  Ti2.5+  Ti3  1  0.40000000  0.80000000  0.00000000  1.0
  Ti2.5+  Ti4  1  0.30000000  0.10000000  0.50000000  1.0
  Ti2.5+  Ti5  1  0.70000000  0.90000000  0.50000000  1.0
  Ti2.5+  Ti6  1  0.10000000  0.70000000  0.50000000  1.0
  Ti2.5+  Ti7  1  0.90000000  0.30000000  0.50000000  1.0
  O2-  O8  1  0.90000000  0.30000000  0.00000000  1.0
  O2-  O9  1  0.10000000  0.70000000  0.00000000  1.0
  O2-  O10  1  0.30000000  0.10000000  0.00000000  1.0
  O2-  O11  1  0.70000000  0.90000000  0.00000000  1.0
  O2-  O12  1  0.40000000  0.80000000  0.50000000  1.0
  O2-  O13  1  0.60000000  0.20000000  0.50000000  1.0
  O2-  O14  1  0.80000000  0.60000000  0.50000000  1.0
  O2-  O15  1  0.20000000  0.40000000  0.50000000  1.0
  O2-  O16  1  0.00000000  0.00000000  0.50000000  1.0
  O2-  O17  1  0.50000000  0.50000000  0.00000000  1.0
