# generated using pymatgen
data_Ti4O7
_symmetry_space_group_name_H-M   'P 1'
_cell_length_a   5.59300000
_cell_length_b   7.12500000
_cell_length_c   12.45600000
_cell_angle_alpha   95.02000000
_cell_angle_beta   95.21000000
_cell_angle_gamma   108.73000000
_symmetry_Int_Tables_number   1
_chemical_formula_structural   Ti4O7
_chemical_formula_sum   'Ti16 O28'
_cell_volume   464.54890710
_cell_formula_units_Z   4
loop_
 _symmetry_equiv_pos_site_id
 _symmetry_equiv_pos_as_xyz
  1  'x, y, z'
loop_
 _atom_type_symbol
 _atom_type_oxidation_number
  Ti0+  0.0
  O0+  0.0
loop_
 _atom_site_type_symbol
 _atom_site_label
 _atom_site_symmetry_multiplicity
 _atom_site_fract_x
 _atom_site_fract_y
 _atom_site_fract_z
 _atom_site_occupancy
  Ti0+  Ti0  1  0.78383000  0.84718000  0.93720000  1.0
  Ti0+  Ti1  1  0.21617000  0.15282000  0.06280000  1.0
  Ti0+  Ti2  1  0.78383000  0.34718000  0.43720000  1.0
  Ti0+  Ti3  1  0.21617000  0.65282000  0.56280000  1.0
  Ti0+  Ti4  1  0.78148000  0.34742000  0.93382000  1.0
  Ti0+  Ti5  1  0.21852000  0.65258000  0.06618000  1.0
  Ti0+  Ti6  1  0.78148000  0.84742000  0.43382000  1.0
  Ti0+  Ti7  1  0.21852000  0.15258000  0.56618000  1.0
  Ti0+  Ti8  1  0.31660000  0.55998000  0.79885000  1.0
  Ti0+  Ti9  1  0.68340000  0.44002000  0.20115000  1.0
  Ti0+  Ti10  1  0.31660000  0.05998000  0.29885000  1.0
  Ti0+  Ti11  1  0.68340000  0.94002000  0.70115000  1.0
  Ti0+  Ti12  1  0.31142000  0.05769000  0.79864000  1.0
  Ti0+  Ti13  1  0.68858000  0.94231000  0.20136000  1.0
  Ti0+  Ti14  1  0.31142000  0.55769000  0.29864000  1.0
  Ti0+  Ti15  1  0.68858000  0.44231000  0.70136000  1.0
  O0+  O16  1  0.89270000  0.13730000  0.98490000  1.0
  O0+  O17  1  0.10730000  0.86270000  0.01510000  1.0
  O0+  O18  1  0.89270000  0.63730000  0.48490000  1.0
  O0+  O19  1  0.10730000  0.36270000  0.51510000  1.0
  O0+  O20  1  0.41300000  0.20780000  0.94230000  1.0
  O0+  O21  1  0.58700000  0.79220000  0.05770000  1.0
  O0+  O22  1  0.41300000  0.70780000  0.44230000  1.0
  O0+  O23  1  0.58700000  0.29220000  0.55770000  1.0
  O0+  O24  1  0.14420000  0.50360000  0.91890000  1.0
  O0+  O25  1  0.85580000  0.49640000  0.08110000  1.0
  O0+  O26  1  0.14420000  0.00360000  0.41890000  1.0
  O0+  O27  1  0.85580000  0.99640000  0.58110000  1.0
  O0+  O28  1  0.67190000  0.56150000  0.86130000  1.0
  O0+  O29  1  0.32810000  0.43850000  0.13870000  1.0
  O0+  O30  1  0.67190000  0.06150000  0.36130000  1.0
  O0+  O31  1  0.32810000  0.93850000  0.63870000  1.0
  O0+  O32  1  0.47350000  0.85510000  0.83610000  1.0
  O0+  O33  1  0.52650000  0.14490000  0.16390000  1.0
  O0+  O34  1  0.47350000  0.35510000  0.33610000  1.0
  O0+  O35  1  0.52650000  0.64490000  0.66390000  1.0
  O0+  O36  1  0.96230000  0.93000000  0.80190000  1.0
  O0+  O37  1  0.03770000  0.07000000  0.19810000  1.0
  O0+  O38  1  0.96230000  0.43000000  0.30190000  1.0
  O0+  O39  1  0.03770000  0.57000000  0.69810000  1.0
  O0+  O40  1  0.70540000  0.20950000  0.77620000  1.0
  O0+  O41  1  0.29460000  0.79050000  0.22380000  1.0
  O0+  O42  1  0.70540000  0.70950000  0.27620000  1.0
  O0+  O43  1  0.29460000  0.29050000  0.72380000  1.0
