# generated using pymatgen
data_Ti5O9
_symmetry_space_group_name_H-M   'P 1'
_cell_length_a   5.60000000
_cell_length_b   7.12000000
_cell_length_c   8.87000000
_cell_angle_alpha   97.60000000
_cell_angle_beta   112.30000000
_cell_angle_gamma   108.50000000
_symmetry_Int_Tables_number   1
_chemical_formula_structural   Ti5O9
_chemical_formula_sum   'Ti10 O18'
_cell_volume   297.16056342
_cell_formula_units_Z   2
loop_
 _symmetry_equiv_pos_site_id
 _symmetry_equiv_pos_as_xyz
  1  'x, y, z'
loop_
 _atom_type_symbol
 _atom_type_oxidation_number
  Ti3.75+  3.75
  O2-  -2.0
loop_
 _atom_site_type_symbol
 _atom_site_label
 _atom_site_symmetry_multiplicity
 _atom_site_fract_x
 _atom_site_fract_y
 _atom_site_fract_z
 _atom_site_occupancy
  Ti3.75+  Ti0  1  0.44400000  0.66700000  0.77800000  1.0
  Ti3.75+  Ti1  1  0.55600000  0.33300000  0.22200000  1.0
  Ti3.75+  Ti2  1  0.44400000  0.16700000  0.77800000  1.0
  Ti3.75+  Ti3  1  0.55600000  0.83300000  0.22200000  1.0
  Ti3.75+  Ti4  1  0.88900000  0.83300000  0.55600000  1.0
  Ti3.75+  Ti5  1  0.11100000  0.16700000  0.44400000  1.0
  Ti3.75+  Ti6  1  0.88900000  0.33300000  0.55600000  1.0
  Ti3.75+  Ti7  1  0.11100000  0.66700000  0.44400000  1.0
  Ti3.75+  Ti8  1  0.00000000  0.00000000  0.00000000  1.0
  Ti3.75+  Ti9  1  0.00000000  0.50000000  0.00000000  1.0
  O2-  O10  1  0.34200000  0.16600000  0.98200000  1.0
  O2-  O11  1  0.65800000  0.83400000  0.01800000  1.0
  O2-  O12  1  0.83000000  0.20200000  0.93200000  1.0
  O2-  O13  1  0.17000000  0.79800000  0.06800000  1.0
  O2-  O14  1  0.61400000  0.46200000  0.84600000  1.0
  O2-  O15  1  0.38600000  0.53800000  0.15400000  1.0
  O2-  O16  1  0.10200000  0.50000000  0.79600000  1.0
  O2-  O17  1  0.89800000  0.50000000  0.20400000  1.0
  O2-  O18  1  0.78700000  0.83300000  0.76000000  1.0
  O2-  O19  1  0.21300000  0.16700000  0.24000000  1.0
  O2-  O20  1  0.27400000  0.87000000  0.71000000  1.0
  O2-  O21  1  0.72600000  0.13000000  0.29000000  1.0
  O2-  O22  1  0.05900000  0.12900000  0.62400000  1.0
  O2-  O23  1  0.94100000  0.87100000  0.37600000  1.0
  O2-  O24  1  0.54600000  0.16600000  0.57400000  1.0
  O2-  O25  1  0.45400000  0.83400000  0.42600000  1.0
  O2-  O26  1  0.28100000  0.46200000  0.51300000  1.0
  O2-  O27  1  0.71900000  0.53800000  0.48700000  1.0
