# generated using pymatgen
data_Ti5O9
_symmetry_space_group_name_H-M   'P 1'
_cell_length_a   5.56900000
_cell_length_b   7.12000000
_cell_length_c   8.86500000
_cell_angle_alpha   97.55000000
_cell_angle_beta   112.34000000
_cell_angle_gamma   108.50000000
_symmetry_Int_Tables_number   1
_chemical_formula_structural   Ti5O9
_chemical_formula_sum   'Ti10 O18'
_cell_volume   295.32639123
_cell_formula_units_Z   2
loop_
 _symmetry_equiv_pos_site_id
 _symmetry_equiv_pos_as_xyz
  1  'x, y, z'
loop_
 _atom_type_symbol
 _atom_type_oxidation_number
  Ti0+  0.0
  O0+  0.0
loop_
 _atom_site_type_symbol
 _atom_site_label
 _atom_site_symmetry_multiplicity
 _atom_site_fract_x
 _atom_site_fract_y
 _atom_site_fract_z
 _atom_site_occupancy
  Ti0+  Ti0  1  0.27600000  0.17000000  0.10700000  1.0
  Ti0+  Ti1  1  0.72400000  0.83000000  0.89300000  1.0
  Ti0+  Ti2  1  0.27600000  0.67000000  0.10700000  1.0
  Ti0+  Ti3  1  0.85200000  0.00800000  0.31600000  1.0
  Ti0+  Ti4  1  0.85200000  0.50200000  0.31600000  1.0
  Ti0+  Ti5  1  0.57500000  0.17000000  0.47000000  1.0
  Ti0+  Ti6  1  0.57500000  0.67000000  0.47000000  1.0
  Ti0+  Ti7  1  0.14800000  0.99200000  0.68400000  1.0
  Ti0+  Ti8  1  0.14800000  0.49200000  0.68400000  1.0
  Ti0+  Ti9  1  0.72400000  0.33000000  0.89300000  1.0
  O0+  O10  1  0.63000000  0.32000000  0.11000000  1.0
  O0+  O11  1  0.76000000  0.96000000  0.54000000  1.0
  O0+  O12  1  0.01000000  0.70000000  0.57000000  1.0
  O0+  O13  1  0.49000000  0.63000000  0.64000000  1.0
  O0+  O14  1  0.80000000  0.35000000  0.70000000  1.0
  O0+  O15  1  0.33000000  0.30000000  0.77000000  1.0
  O0+  O16  1  0.53000000  0.03000000  0.80000000  1.0
  O0+  O17  1  0.08000000  0.99000000  0.88000000  1.0
  O0+  O18  1  0.89000000  0.62000000  0.97000000  1.0
  O0+  O19  1  0.37000000  0.68000000  0.89000000  1.0
  O0+  O20  1  0.11000000  0.38000000  0.03000000  1.0
  O0+  O21  1  0.92000000  0.01000000  0.12000000  1.0
  O0+  O22  1  0.47000000  0.97000000  0.20000000  1.0
  O0+  O23  1  0.67000000  0.70000000  0.23000000  1.0
  O0+  O24  1  0.20000000  0.65000000  0.30000000  1.0
  O0+  O25  1  0.51000000  0.37000000  0.36000000  1.0
  O0+  O26  1  0.99000000  0.30000000  0.43000000  1.0
  O0+  O27  1  0.24000000  0.04000000  0.46000000  1.0
