# generated using pymatgen
data_Ti6O11
_symmetry_space_group_name_H-M   'P 1'
_cell_length_a   7.51700000
_cell_length_b   11.98600000
_cell_length_c   13.39700000
_cell_angle_alpha   98.29000000
_cell_angle_beta   105.52000000
_cell_angle_gamma   107.79000000
_symmetry_Int_Tables_number   1
_chemical_formula_structural   Ti6O11
_chemical_formula_sum   'Ti36 O66'
_cell_volume   1073.32225688
_cell_formula_units_Z   6
loop_
 _symmetry_equiv_pos_site_id
 _symmetry_equiv_pos_as_xyz
  1  'x, y, z'
loop_
 _atom_type_symbol
 _atom_type_oxidation_number
  Ti3.667+  3.667
  O2-  -2.0
loop_
 _atom_site_type_symbol
 _atom_site_label
 _atom_site_symmetry_multiplicity
 _atom_site_fract_x
 _atom_site_fract_y
 _atom_site_fract_z
 _atom_site_occupancy
  Ti3.667+  Ti0  1  0.86273000  0.97190000  0.05839000  1.0
  Ti3.667+  Ti1  1  0.13727000  0.02810000  0.94161000  1.0
  Ti3.667+  Ti2  1  0.57434000  0.91318000  0.16963000  1.0
  Ti3.667+  Ti3  1  0.42566000  0.08682000  0.83037000  1.0
  Ti3.667+  Ti4  1  0.70086000  0.12888000  0.69168000  1.0
  Ti3.667+  Ti5  1  0.29914000  0.87112000  0.30832000  1.0
  Ti3.667+  Ti6  1  0.63583000  0.19572000  0.10854000  1.0
  Ti3.667+  Ti7  1  0.36417000  0.80428000  0.89146000  1.0
  Ti3.667+  Ti8  1  0.92741000  0.25187000  0.99299000  1.0
  Ti3.667+  Ti9  1  0.07259000  0.74813000  0.00701000  1.0
  Ti3.667+  Ti10  1  0.80628000  0.69797000  0.13697000  1.0
  Ti3.667+  Ti11  1  0.19372000  0.30203000  0.86303000  1.0
  Ti3.667+  Ti12  1  0.86500000  0.64149000  0.72338000  1.0
  Ti3.667+  Ti13  1  0.13500000  0.35851000  0.27662000  1.0
  Ti3.667+  Ti14  1  0.56583000  0.58444000  0.83757000  1.0
  Ti3.667+  Ti15  1  0.43417000  0.41556000  0.16243000  1.0
  Ti3.667+  Ti16  1  0.69814000  0.47200000  0.02825000  1.0
  Ti3.667+  Ti17  1  0.30186000  0.52800000  0.97175000  1.0
  Ti3.667+  Ti18  1  0.63772000  0.52640000  0.44212000  1.0
  Ti3.667+  Ti19  1  0.36228000  0.47360000  0.55788000  1.0
  Ti3.667+  Ti20  1  0.92985000  0.58740000  0.32969000  1.0
  Ti3.667+  Ti21  1  0.07015000  0.41260000  0.67031000  1.0
  Ti3.667+  Ti22  1  0.80154000  0.37417000  0.80947000  1.0
  Ti3.667+  Ti23  1  0.19846000  0.62583000  0.19053000  1.0
  Ti3.667+  Ti24  1  0.85924000  0.30604000  0.38903000  1.0
  Ti3.667+  Ti25  1  0.14076000  0.69396000  0.61097000  1.0
  Ti3.667+  Ti26  1  0.56781000  0.24771000  0.50287000  1.0
  Ti3.667+  Ti27  1  0.43219000  0.75229000  0.49713000  1.0
  Ti3.667+  Ti28  1  0.69452000  0.79334000  0.35655000  1.0
  Ti3.667+  Ti29  1  0.30548000  0.20666000  0.64345000  1.0
  Ti3.667+  Ti30  1  0.64940000  0.86454000  0.77437000  1.0
  Ti3.667+  Ti31  1  0.35060000  0.13546000  0.22563000  1.0
  Ti3.667+  Ti32  1  0.93310000  0.92116000  0.65491000  1.0
  Ti3.667+  Ti33  1  0.06690000  0.07884000  0.34509000  1.0
  Ti3.667+  Ti34  1  0.80559000  0.03807000  0.46726000  1.0
  Ti3.667+  Ti35  1  0.19441000  0.96193000  0.53274000  1.0
  O2-  O36  1  0.91620000  0.28660000  0.13540000  1.0
  O2-  O37  1  0.08380000  0.71340000  0.86460000  1.0
  O2-  O38  1  0.80070000  0.63500000  0.98470000  1.0
  O2-  O39  1  0.19930000  0.36500000  0.01530000  1.0
  O2-  O40  1  0.63900000  0.89540000  0.91930000  1.0
  O2-  O41  1  0.36100000  0.10460000  0.08070000  1.0
  O2-  O42  1  0.64170000  0.16240000  0.96090000  1.0
  O2-  O43  1  0.35830000  0.83760000  0.03910000  1.0
  O2-  O44  1  0.90290000  0.22520000  0.83350000  1.0
  O2-  O45  1  0.09710000  0.77480000  0.16650000  1.0
  O2-  O46  1  0.98250000  0.10880000  0.99890000  1.0
  O2-  O47  1  0.01750000  0.89120000  0.00110000  1.0
  O2-  O48  1  0.73200000  0.83500000  0.11640000  1.0
  O2-  O49  1  0.26800000  0.16500000  0.88360000  1.0
  O2-  O50  1  0.54430000  0.23320000  0.76510000  1.0
  O2-  O51  1  0.45570000  0.76680000  0.23490000  1.0
  O2-  O52  1  0.69670000  0.04600000  0.12310000  1.0
  O2-  O53  1  0.30330000  0.95400000  0.87690000  1.0
  O2-  O54  1  0.57500000  0.01280000  0.75410000  1.0
  O2-  O55  1  0.42500000  0.98720000  0.24590000  1.0
  O2-  O56  1  0.82840000  0.05730000  0.62430000  1.0
  O2-  O57  1  0.17160000  0.94270000  0.37570000  1.0
  O2-  O58  1  0.92240000  0.62160000  0.46960000  1.0
  O2-  O59  1  0.07760000  0.37840000  0.53040000  1.0
  O2-  O60  1  0.79790000  0.30110000  0.65810000  1.0
  O2-  O61  1  0.20210000  0.69890000  0.34190000  1.0
  O2-  O62  1  0.64260000  0.56310000  0.59000000  1.0
  O2-  O63  1  0.35740000  0.43690000  0.41000000  1.0
  O2-  O64  1  0.64330000  0.49370000  0.29150000  1.0
  O2-  O65  1  0.35670000  0.50630000  0.70850000  1.0
  O2-  O66  1  0.91280000  0.55880000  0.16980000  1.0
  O2-  O67  1  0.08720000  0.44120000  0.83020000  1.0
  O2-  O68  1  0.98370000  0.44260000  0.33250000  1.0
  O2-  O69  1  0.01630000  0.55740000  0.66750000  1.0
  O2-  O70  1  0.73520000  0.50300000  0.78630000  1.0
  O2-  O71  1  0.26480000  0.49700000  0.21370000  1.0
  O2-  O72  1  0.53960000  0.55900000  0.09820000  1.0
  O2-  O73  1  0.46040000  0.44100000  0.90180000  1.0
  O2-  O74  1  0.69850000  0.71420000  0.79010000  1.0
  O2-  O75  1  0.30150000  0.28580000  0.20990000  1.0
  O2-  O76  1  0.57290000  0.34200000  0.08870000  1.0
  O2-  O77  1  0.42710000  0.65800000  0.91130000  1.0
  O2-  O78  1  0.83090000  0.38930000  0.95450000  1.0
  O2-  O79  1  0.16910000  0.61070000  0.04550000  1.0
  O2-  O80  1  0.92000000  0.95410000  0.80570000  1.0
  O2-  O81  1  0.08000000  0.04590000  0.19430000  1.0
  O2-  O82  1  0.78570000  0.95840000  0.31750000  1.0
  O2-  O83  1  0.21430000  0.04160000  0.68250000  1.0
  O2-  O84  1  0.63780000  0.22680000  0.25340000  1.0
  O2-  O85  1  0.36220000  0.77320000  0.74660000  1.0
  O2-  O86  1  0.63810000  0.82630000  0.62540000  1.0
  O2-  O87  1  0.36190000  0.17370000  0.37460000  1.0
  O2-  O88  1  0.89530000  0.89080000  0.49560000  1.0
  O2-  O89  1  0.10470000  0.10920000  0.50440000  1.0
  O2-  O90  1  0.98360000  0.77440000  0.66690000  1.0
  O2-  O91  1  0.01640000  0.22560000  0.33310000  1.0
  O2-  O92  1  0.77360000  0.17240000  0.45370000  1.0
  O2-  O93  1  0.22640000  0.82760000  0.54630000  1.0
  O2-  O94  1  0.53360000  0.89160000  0.42720000  1.0
  O2-  O95  1  0.46640000  0.10840000  0.57280000  1.0
  O2-  O96  1  0.69920000  0.38110000  0.45940000  1.0
  O2-  O97  1  0.30080000  0.61890000  0.54060000  1.0
  O2-  O98  1  0.57430000  0.67710000  0.42080000  1.0
  O2-  O99  1  0.42570000  0.32290000  0.57920000  1.0
  O2-  O100  1  0.82890000  0.72230000  0.29130000  1.0
  O2-  O101  1  0.17110000  0.27770000  0.70870000  1.0
