# generated using pymatgen
data_Ti6O11
_symmetry_space_group_name_H-M   'P 1'
_cell_length_a   9.94600000
_cell_length_b   3.74400000
_cell_length_c   20.99400000
_cell_angle_alpha   90.00000000
_cell_angle_beta   93.30000000
_cell_angle_gamma   90.00000000
_symmetry_Int_Tables_number   1
_chemical_formula_structural   Ti6O11
_chemical_formula_sum   'Ti24 O44'
_cell_volume   780.47455758
_cell_formula_units_Z   4
loop_
 _symmetry_equiv_pos_site_id
 _symmetry_equiv_pos_as_xyz
  1  'x, y, z'
loop_
 _atom_type_symbol
 _atom_type_oxidation_number
  Ti3.667+  3.667
  O2-  -2.0
loop_
 _atom_site_type_symbol
 _atom_site_label
 _atom_site_symmetry_multiplicity
 _atom_site_fract_x
 _atom_site_fract_y
 _atom_site_fract_z
 _atom_site_occupancy
  Ti3.667+  Ti0  1  0.79100000  0.00000000  0.89080000  1.0
  Ti3.667+  Ti1  1  0.20900000  0.00000000  0.10920000  1.0
  Ti3.667+  Ti2  1  0.29100000  0.50000000  0.89080000  1.0
  Ti3.667+  Ti3  1  0.70900000  0.50000000  0.10920000  1.0
  Ti3.667+  Ti4  1  0.77000000  0.00000000  0.71220000  1.0
  Ti3.667+  Ti5  1  0.23000000  0.00000000  0.28780000  1.0
  Ti3.667+  Ti6  1  0.27000000  0.50000000  0.71220000  1.0
  Ti3.667+  Ti7  1  0.73000000  0.50000000  0.28780000  1.0
  Ti3.667+  Ti8  1  0.04300000  0.00000000  0.64330000  1.0
  Ti3.667+  Ti9  1  0.95700000  0.00000000  0.35670000  1.0
  Ti3.667+  Ti10  1  0.54300000  0.50000000  0.64330000  1.0
  Ti3.667+  Ti11  1  0.45700000  0.50000000  0.35670000  1.0
  Ti3.667+  Ti12  1  0.85600000  0.00000000  0.52860000  1.0
  Ti3.667+  Ti13  1  0.14400000  0.00000000  0.47140000  1.0
  Ti3.667+  Ti14  1  0.35600000  0.50000000  0.52860000  1.0
  Ti3.667+  Ti15  1  0.64400000  0.50000000  0.47140000  1.0
  Ti3.667+  Ti16  1  0.89300000  0.00000000  0.20490000  1.0
  Ti3.667+  Ti17  1  0.10700000  0.00000000  0.79510000  1.0
  Ti3.667+  Ti18  1  0.39300000  0.50000000  0.20490000  1.0
  Ti3.667+  Ti19  1  0.60700000  0.50000000  0.79510000  1.0
  Ti3.667+  Ti20  1  0.92600000  0.00000000  0.05590000  1.0
  Ti3.667+  Ti21  1  0.07400000  0.00000000  0.94410000  1.0
  Ti3.667+  Ti22  1  0.42600000  0.50000000  0.05590000  1.0
  Ti3.667+  Ti23  1  0.57400000  0.50000000  0.94410000  1.0
  O2-  O24  1  0.61900000  0.00000000  0.94600000  1.0
  O2-  O25  1  0.38100000  0.00000000  0.05400000  1.0
  O2-  O26  1  0.11900000  0.50000000  0.94600000  1.0
  O2-  O27  1  0.88100000  0.50000000  0.05400000  1.0
  O2-  O28  1  0.88500000  0.00000000  0.96700000  1.0
  O2-  O29  1  0.11500000  0.00000000  0.03300000  1.0
  O2-  O30  1  0.38500000  0.50000000  0.96700000  1.0
  O2-  O31  1  0.61500000  0.50000000  0.03300000  1.0
  O2-  O32  1  0.69700000  0.00000000  0.78900000  1.0
  O2-  O33  1  0.30300000  0.00000000  0.21100000  1.0
  O2-  O34  1  0.19700000  0.50000000  0.78900000  1.0
  O2-  O35  1  0.80300000  0.50000000  0.21100000  1.0
  O2-  O36  1  0.97000000  0.00000000  0.85700000  1.0
  O2-  O37  1  0.03000000  0.00000000  0.14300000  1.0
  O2-  O38  1  0.47000000  0.50000000  0.85700000  1.0
  O2-  O39  1  0.53000000  0.50000000  0.14300000  1.0
  O2-  O40  1  0.94600000  0.00000000  0.72700000  1.0
  O2-  O41  1  0.05400000  0.00000000  0.27300000  1.0
  O2-  O42  1  0.44600000  0.50000000  0.72700000  1.0
  O2-  O43  1  0.55400000  0.50000000  0.27300000  1.0
  O2-  O44  1  0.56400000  0.00000000  0.63300000  1.0
  O2-  O45  1  0.43600000  0.00000000  0.36700000  1.0
  O2-  O46  1  0.06400000  0.50000000  0.63300000  1.0
  O2-  O47  1  0.93600000  0.50000000  0.36700000  1.0
  O2-  O48  1  0.83400000  0.00000000  0.61400000  1.0
  O2-  O49  1  0.16600000  0.00000000  0.38600000  1.0
  O2-  O50  1  0.33400000  0.50000000  0.61400000  1.0
  O2-  O51  1  0.66600000  0.50000000  0.38600000  1.0
  O2-  O52  1  0.66600000  0.00000000  0.49500000  1.0
  O2-  O53  1  0.33400000  0.00000000  0.50500000  1.0
  O2-  O54  1  0.16600000  0.50000000  0.49500000  1.0
  O2-  O55  1  0.83400000  0.50000000  0.50500000  1.0
  O2-  O56  1  0.93800000  0.00000000  0.44200000  1.0
  O2-  O57  1  0.06200000  0.00000000  0.55800000  1.0
  O2-  O58  1  0.43800000  0.50000000  0.44200000  1.0
  O2-  O59  1  0.56200000  0.50000000  0.55800000  1.0
  O2-  O60  1  0.79600000  0.00000000  0.29200000  1.0
  O2-  O61  1  0.20400000  0.00000000  0.70800000  1.0
  O2-  O62  1  0.29600000  0.50000000  0.29200000  1.0
  O2-  O63  1  0.70400000  0.50000000  0.70800000  1.0
  O2-  O64  1  0.78000000  0.00000000  0.12700000  1.0
  O2-  O65  1  0.22000000  0.00000000  0.87300000  1.0
  O2-  O66  1  0.28000000  0.50000000  0.12700000  1.0
  O2-  O67  1  0.72000000  0.50000000  0.87300000  1.0
