# generated using pymatgen
data_Ti7O13
_symmetry_space_group_name_H-M   'P 1'
_cell_length_a   5.54000000
_cell_length_b   7.13000000
_cell_length_c   15.36000000
_cell_angle_alpha   98.90000000
_cell_angle_beta   125.50000000
_cell_angle_gamma   108.50000000
_symmetry_Int_Tables_number   1
_chemical_formula_structural   Ti7O13
_chemical_formula_sum   'Ti14 O26'
_cell_volume   420.85451347
_cell_formula_units_Z   2
loop_
 _symmetry_equiv_pos_site_id
 _symmetry_equiv_pos_as_xyz
  1  'x, y, z'
loop_
 _atom_type_symbol
 _atom_type_oxidation_number
  Ti0+  0.0
  O0+  0.0
loop_
 _atom_site_type_symbol
 _atom_site_label
 _atom_site_symmetry_multiplicity
 _atom_site_fract_x
 _atom_site_fract_y
 _atom_site_fract_z
 _atom_site_occupancy
  Ti0+  Ti0  1  0.30800000  0.61500000  0.84600000  1.0
  Ti0+  Ti1  1  0.69200000  0.38500000  0.15400000  1.0
  Ti0+  Ti2  1  0.30800000  0.11500000  0.84600000  1.0
  Ti0+  Ti3  1  0.69200000  0.88500000  0.15400000  1.0
  Ti0+  Ti4  1  0.61500000  0.73100000  0.69200000  1.0
  Ti0+  Ti5  1  0.38500000  0.26900000  0.30800000  1.0
  Ti0+  Ti6  1  0.61500000  0.23100000  0.69200000  1.0
  Ti0+  Ti7  1  0.38500000  0.76900000  0.30800000  1.0
  Ti0+  Ti8  1  0.92300000  0.84600000  0.53800000  1.0
  Ti0+  Ti9  1  0.07700000  0.15400000  0.46200000  1.0
  Ti0+  Ti10  1  0.92300000  0.34600000  0.53800000  1.0
  Ti0+  Ti11  1  0.07700000  0.65400000  0.46200000  1.0
  Ti0+  Ti12  1  0.00000000  0.00000000  0.00000000  1.0
  Ti0+  Ti13  1  0.00000000  0.50000000  0.00000000  1.0
  O0+  O14  1  0.33100000  0.16200000  0.98700000  1.0
  O0+  O15  1  0.66900000  0.83800000  0.01300000  1.0
  O0+  O16  1  0.78800000  0.18800000  0.95300000  1.0
  O0+  O17  1  0.21200000  0.81200000  0.04700000  1.0
  O0+  O18  1  0.52000000  0.42700000  0.89300000  1.0
  O0+  O19  1  0.48000000  0.57300000  0.10700000  1.0
  O0+  O20  1  0.97600000  0.45300000  0.85900000  1.0
  O0+  O21  1  0.02400000  0.54700000  0.14100000  1.0
  O0+  O22  1  0.63900000  0.77800000  0.83400000  1.0
  O0+  O23  1  0.36100000  0.22200000  0.16600000  1.0
  O0+  O24  1  0.09600000  0.80400000  0.79900000  1.0
  O0+  O25  1  0.90400000  0.19600000  0.20100000  1.0
  O0+  O26  1  0.82700000  0.04200000  0.73900000  1.0
  O0+  O27  1  0.17300000  0.95800000  0.26100000  1.0
  O0+  O28  1  0.28400000  0.06800000  0.70500000  1.0
  O0+  O29  1  0.71600000  0.93200000  0.29500000  1.0
  O0+  O30  1  0.94700000  0.39300000  0.68000000  1.0
  O0+  O31  1  0.05300000  0.60700000  0.32000000  1.0
  O0+  O32  1  0.40400000  0.41900000  0.64500000  1.0
  O0+  O33  1  0.59600000  0.58100000  0.35500000  1.0
  O0+  O34  1  0.13500000  0.65800000  0.58600000  1.0
  O0+  O35  1  0.86500000  0.34200000  0.41400000  1.0
  O0+  O36  1  0.59200000  0.68400000  0.55100000  1.0
  O0+  O37  1  0.40800000  0.31600000  0.44900000  1.0
  O0+  O38  1  0.28900000  0.96600000  0.50900000  1.0
  O0+  O39  1  0.71100000  0.03400000  0.49100000  1.0
