# generated using pymatgen
data_Ti8O15
_symmetry_space_group_name_H-M   'P 1'
_cell_length_a   5.57000000
_cell_length_b   7.10000000
_cell_length_c   37.46000000
_cell_angle_alpha   97.20000000
_cell_angle_beta   128.80000000
_cell_angle_gamma   109.60000000
_symmetry_Int_Tables_number   1
_chemical_formula_structural   Ti8O15
_chemical_formula_sum   'Ti32 O60'
_cell_volume   967.41229870
_cell_formula_units_Z   4
loop_
 _symmetry_equiv_pos_site_id
 _symmetry_equiv_pos_as_xyz
  1  'x, y, z'
loop_
 _atom_type_symbol
 _atom_type_oxidation_number
  Ti0+  0.0
  O0+  0.0
loop_
 _atom_site_type_symbol
 _atom_site_label
 _atom_site_symmetry_multiplicity
 _atom_site_fract_x
 _atom_site_fract_y
 _atom_site_fract_z
 _atom_site_occupancy
  Ti0+  Ti0  1  0.63300000  0.80000000  0.96700000  1.0
  Ti0+  Ti1  1  0.36700000  0.20000000  0.03300000  1.0
  Ti0+  Ti2  1  0.63300000  0.30000000  0.96700000  1.0
  Ti0+  Ti3  1  0.36700000  0.70000000  0.03300000  1.0
  Ti0+  Ti4  1  0.90000000  0.90000000  0.90000000  1.0
  Ti0+  Ti5  1  0.10000000  0.10000000  0.10000000  1.0
  Ti0+  Ti6  1  0.90000000  0.40000000  0.90000000  1.0
  Ti0+  Ti7  1  0.10000000  0.60000000  0.10000000  1.0
  Ti0+  Ti8  1  0.16700000  0.00000000  0.83300000  1.0
  Ti0+  Ti9  1  0.83300000  0.00000000  0.16700000  1.0
  Ti0+  Ti10  1  0.16700000  0.50000000  0.83300000  1.0
  Ti0+  Ti11  1  0.83300000  0.50000000  0.16700000  1.0
  Ti0+  Ti12  1  0.43300000  0.60000000  0.76700000  1.0
  Ti0+  Ti13  1  0.56700000  0.40000000  0.23300000  1.0
  Ti0+  Ti14  1  0.43300000  0.10000000  0.76700000  1.0
  Ti0+  Ti15  1  0.56700000  0.90000000  0.23300000  1.0
  Ti0+  Ti16  1  0.56700000  0.90000000  0.73300000  1.0
  Ti0+  Ti17  1  0.43300000  0.10000000  0.26700000  1.0
  Ti0+  Ti18  1  0.56700000  0.40000000  0.73300000  1.0
  Ti0+  Ti19  1  0.43300000  0.60000000  0.26700000  1.0
  Ti0+  Ti20  1  0.83300000  0.00000000  0.66700000  1.0
  Ti0+  Ti21  1  0.16700000  0.00000000  0.33300000  1.0
  Ti0+  Ti22  1  0.83300000  0.50000000  0.66700000  1.0
  Ti0+  Ti23  1  0.16700000  0.50000000  0.33300000  1.0
  Ti0+  Ti24  1  0.10000000  0.60000000  0.60000000  1.0
  Ti0+  Ti25  1  0.90000000  0.40000000  0.40000000  1.0
  Ti0+  Ti26  1  0.10000000  0.10000000  0.60000000  1.0
  Ti0+  Ti27  1  0.90000000  0.90000000  0.40000000  1.0
  Ti0+  Ti28  1  0.36700000  0.70000000  0.53300000  1.0
  Ti0+  Ti29  1  0.63300000  0.30000000  0.46700000  1.0
  Ti0+  Ti30  1  0.36700000  0.20000000  0.53300000  1.0
  Ti0+  Ti31  1  0.63300000  0.80000000  0.46700000  1.0
  O0+  O32  1  0.85800000  0.61600000  0.98700000  1.0
  O0+  O33  1  0.14200000  0.38400000  0.01300000  1.0
  O0+  O34  1  0.30500000  0.63900000  0.97200000  1.0
  O0+  O35  1  0.69500000  0.36100000  0.02800000  1.0
  O0+  O36  1  0.96100000  0.96100000  0.96100000  1.0
  O0+  O37  1  0.03900000  0.03900000  0.03900000  1.0
  O0+  O38  1  0.40900000  0.98400000  0.94600000  1.0
  O0+  O39  1  0.59100000  0.01600000  0.05400000  1.0
  O0+  O40  1  0.12400000  0.21600000  0.92000000  1.0
  O0+  O41  1  0.87600000  0.78400000  0.08000000  1.0
  O0+  O42  1  0.57200000  0.23900000  0.90500000  1.0
  O0+  O43  1  0.42800000  0.76100000  0.09500000  1.0
  O0+  O44  1  0.22800000  0.56100000  0.89500000  1.0
  O0+  O45  1  0.77200000  0.43900000  0.10500000  1.0
  O0+  O46  1  0.67600000  0.58400000  0.88000000  1.0
  O0+  O47  1  0.32400000  0.41600000  0.12000000  1.0
  O0+  O48  1  0.39100000  0.81600000  0.85400000  1.0
  O0+  O49  1  0.60900000  0.18400000  0.14600000  1.0
  O0+  O50  1  0.83900000  0.83900000  0.83900000  1.0
  O0+  O51  1  0.16100000  0.16100000  0.16100000  1.0
  O0+  O52  1  0.49500000  0.16100000  0.82800000  1.0
  O0+  O53  1  0.50500000  0.83900000  0.17200000  1.0
  O0+  O54  1  0.94200000  0.18400000  0.81300000  1.0
  O0+  O55  1  0.05800000  0.81600000  0.18700000  1.0
  O0+  O56  1  0.65800000  0.41600000  0.78700000  1.0
  O0+  O57  1  0.34200000  0.58400000  0.21300000  1.0
  O0+  O58  1  0.10500000  0.43900000  0.77200000  1.0
  O0+  O59  1  0.89500000  0.56100000  0.22800000  1.0
  O0+  O60  1  0.79100000  0.71600000  0.75400000  1.0
  O0+  O61  1  0.20900000  0.28400000  0.24600000  1.0
  O0+  O62  1  0.20900000  0.78400000  0.74600000  1.0
  O0+  O63  1  0.79100000  0.21600000  0.25400000  1.0
  O0+  O64  1  0.89500000  0.06100000  0.72800000  1.0
  O0+  O65  1  0.10500000  0.93900000  0.27200000  1.0
  O0+  O66  1  0.34200000  0.08400000  0.71300000  1.0
  O0+  O67  1  0.65800000  0.91600000  0.28700000  1.0
  O0+  O68  1  0.05800000  0.31600000  0.68700000  1.0
  O0+  O69  1  0.94200000  0.68400000  0.31300000  1.0
  O0+  O70  1  0.50500000  0.33900000  0.67200000  1.0
  O0+  O71  1  0.49500000  0.66100000  0.32800000  1.0
  O0+  O72  1  0.16100000  0.66100000  0.66100000  1.0
  O0+  O73  1  0.83900000  0.33900000  0.33900000  1.0
  O0+  O74  1  0.60900000  0.68400000  0.64600000  1.0
  O0+  O75  1  0.39100000  0.31600000  0.35400000  1.0
  O0+  O76  1  0.32400000  0.91600000  0.62000000  1.0
  O0+  O77  1  0.67600000  0.08400000  0.38000000  1.0
  O0+  O78  1  0.77200000  0.93900000  0.60500000  1.0
  O0+  O79  1  0.22800000  0.06100000  0.39500000  1.0
  O0+  O80  1  0.42800000  0.26100000  0.59500000  1.0
  O0+  O81  1  0.57200000  0.73900000  0.40500000  1.0
  O0+  O82  1  0.87600000  0.28400000  0.58000000  1.0
  O0+  O83  1  0.12400000  0.71600000  0.42000000  1.0
  O0+  O84  1  0.59100000  0.51600000  0.55400000  1.0
  O0+  O85  1  0.40900000  0.48400000  0.44600000  1.0
  O0+  O86  1  0.03900000  0.53900000  0.53900000  1.0
  O0+  O87  1  0.96100000  0.46100000  0.46100000  1.0
  O0+  O88  1  0.69500000  0.86100000  0.52800000  1.0
  O0+  O89  1  0.30500000  0.13900000  0.47200000  1.0
  O0+  O90  1  0.14200000  0.88400000  0.51300000  1.0
  O0+  O91  1  0.85800000  0.11600000  0.48700000  1.0
