# generated using pymatgen
data_TiMn2
_symmetry_space_group_name_H-M   'P 1'
_cell_length_a   4.81000000
_cell_length_b   4.81000000
_cell_length_c   7.88000000
_cell_angle_alpha   90.00000000
_cell_angle_beta   90.00000000
_cell_angle_gamma   120.00000000
_symmetry_Int_Tables_number   1
_chemical_formula_structural   TiMn2
_chemical_formula_sum   'Ti4 Mn8'
_cell_volume   157.88722871
_cell_formula_units_Z   4
loop_
 _symmetry_equiv_pos_site_id
 _symmetry_equiv_pos_as_xyz
  1  'x, y, z'
loop_
 _atom_type_symbol
 _atom_type_oxidation_number
  Ti0+  0.0
  Mn0+  0.0
loop_
 _atom_site_type_symbol
 _atom_site_label
 _atom_site_symmetry_multiplicity
 _atom_site_fract_x
 _atom_site_fract_y
 _atom_site_fract_z
 _atom_site_occupancy
  Ti0+  Ti0  1  0.33333333  0.66666667  0.43700000  1.0
  Ti0+  Ti1  1  0.66666667  0.33333333  0.56300000  1.0
  Ti0+  Ti2  1  0.66666667  0.33333333  0.93700000  1.0
  Ti0+  Ti3  1  0.33333333  0.66666667  0.06300000  1.0
  Mn0+  Mn4  1  0.00000000  0.00000000  0.50000000  1.0
  Mn0+  Mn5  1  0.00000000  0.00000000  0.00000000  1.0
  Mn0+  Mn6  1  0.16700000  0.83300000  0.25000000  1.0
  Mn0+  Mn7  1  0.16700000  0.33400000  0.25000000  1.0
  Mn0+  Mn8  1  0.66600000  0.83300000  0.25000000  1.0
  Mn0+  Mn9  1  0.83300000  0.16700000  0.75000000  1.0
  Mn0+  Mn10  1  0.83300000  0.66600000  0.75000000  1.0
  Mn0+  Mn11  1  0.33400000  0.16700000  0.75000000  1.0
