# generated using pymatgen
data_TiO2
_symmetry_space_group_name_H-M   'P 1'
_cell_length_a   2.19850000
_cell_length_b   2.19850000
_cell_length_c   5.36170000
_cell_angle_alpha   90.00000000
_cell_angle_beta   90.00000000
_cell_angle_gamma   90.00000000
_symmetry_Int_Tables_number   1
_chemical_formula_structural   TiO2
_chemical_formula_sum   'Ti2 O4'
_cell_volume   25.91525284
_cell_formula_units_Z   2
loop_
 _symmetry_equiv_pos_site_id
 _symmetry_equiv_pos_as_xyz
  1  'x, y, z'
loop_
 _atom_type_symbol
 _atom_type_oxidation_number
  Ti0+  0.0
  O0+  0.0
loop_
 _atom_site_type_symbol
 _atom_site_label
 _atom_site_symmetry_multiplicity
 _atom_site_fract_x
 _atom_site_fract_y
 _atom_site_fract_z
 _atom_site_occupancy
  Ti0+  Ti0  1  0.00000000  0.00000000  0.50000000  1.0
  Ti0+  Ti1  1  0.50000000  0.50000000  0.00000000  1.0
  O0+  O2  1  0.00000000  0.00000000  0.16300000  1.0
  O0+  O3  1  0.00000000  0.00000000  0.83700000  1.0
  O0+  O4  1  0.50000000  0.50000000  0.66300000  1.0
  O0+  O5  1  0.50000000  0.50000000  0.33700000  1.0
