# generated using pymatgen
data_TiO2
_symmetry_space_group_name_H-M   'P 1'
_cell_length_a   15.62000000
_cell_length_b   7.81000000
_cell_length_c   12.93200000
_cell_angle_alpha   90.00000000
_cell_angle_beta   90.00000000
_cell_angle_gamma   90.00000000
_symmetry_Int_Tables_number   1
_chemical_formula_structural   TiO2
_chemical_formula_sum   'Ti8 O16'
_cell_volume   1577.60313040
_cell_formula_units_Z   8
loop_
 _symmetry_equiv_pos_site_id
 _symmetry_equiv_pos_as_xyz
  1  'x, y, z'
loop_
 _atom_type_symbol
 _atom_type_oxidation_number
  Ti4+  4.0
  O2-  -2.0
loop_
 _atom_site_type_symbol
 _atom_site_label
 _atom_site_symmetry_multiplicity
 _atom_site_fract_x
 _atom_site_fract_y
 _atom_site_fract_z
 _atom_site_occupancy
  Ti4+  Ti0  1  0.37610000  0.00000000  0.94090000  1.0
  Ti4+  Ti1  1  0.62390000  0.00000000  0.94090000  1.0
  Ti4+  Ti2  1  0.87610000  0.50000000  0.94090000  1.0
  Ti4+  Ti3  1  0.12390000  0.50000000  0.94090000  1.0
  Ti4+  Ti4  1  0.50000000  0.24610000  0.94400000  1.0
  Ti4+  Ti5  1  0.50000000  0.75390000  0.94400000  1.0
  Ti4+  Ti6  1  0.00000000  0.74610000  0.94400000  1.0
  Ti4+  Ti7  1  0.00000000  0.25390000  0.94400000  1.0
  O2-  O8  1  0.00000000  0.00000000  0.92330000  1.0
  O2-  O9  1  0.50000000  0.50000000  0.92330000  1.0
  O2-  O10  1  0.50000000  0.00000000  0.91620000  1.0
  O2-  O11  1  0.00000000  0.50000000  0.91620000  1.0
  O2-  O12  1  0.24550000  0.00000000  0.91460000  1.0
  O2-  O13  1  0.75450000  0.00000000  0.91460000  1.0
  O2-  O14  1  0.74550000  0.50000000  0.91460000  1.0
  O2-  O15  1  0.25450000  0.50000000  0.91460000  1.0
  O2-  O16  1  0.37710000  0.20770000  0.00000000  1.0
  O2-  O17  1  0.62290000  0.79230000  0.00000000  1.0
  O2-  O18  1  0.62290000  0.20770000  0.00000000  1.0
  O2-  O19  1  0.37710000  0.79230000  0.00000000  1.0
  O2-  O20  1  0.87710000  0.70770000  0.00000000  1.0
  O2-  O21  1  0.12290000  0.29230000  0.00000000  1.0
  O2-  O22  1  0.12290000  0.70770000  0.00000000  1.0
  O2-  O23  1  0.87710000  0.29230000  0.00000000  1.0
