# generated using pymatgen
data_TiO2
_symmetry_space_group_name_H-M   'P 1'
_cell_length_a   5.29100000
_cell_length_b   5.29100000
_cell_length_c   6.13300000
_cell_angle_alpha   90.00000000
_cell_angle_beta   90.00000000
_cell_angle_gamma   120.00000000
_symmetry_Int_Tables_number   1
_chemical_formula_structural   TiO2
_chemical_formula_sum   'Ti3 O6'
_cell_volume   148.68909545
_cell_formula_units_Z   3
loop_
 _symmetry_equiv_pos_site_id
 _symmetry_equiv_pos_as_xyz
  1  'x, y, z'
loop_
 _atom_type_symbol
 _atom_type_oxidation_number
  Ti4+  4.0
  O2-  -2.0
loop_
 _atom_site_type_symbol
 _atom_site_label
 _atom_site_symmetry_multiplicity
 _atom_site_fract_x
 _atom_site_fract_y
 _atom_site_fract_z
 _atom_site_occupancy
  Ti4+  Ti0  1  0.45300000  0.00000000  0.33333333  1.0
  Ti4+  Ti1  1  0.54700000  0.54700000  0.00000000  1.0
  Ti4+  Ti2  1  0.00000000  0.45300000  0.66666667  1.0
  O2-  O3  1  0.10500000  0.69700000  0.45166667  1.0
  O2-  O4  1  0.59200000  0.89500000  0.11833333  1.0
  O2-  O5  1  0.30300000  0.40800000  0.78500000  1.0
  O2-  O6  1  0.89500000  0.59200000  0.88166667  1.0
  O2-  O7  1  0.69700000  0.10500000  0.54833333  1.0
  O2-  O8  1  0.40800000  0.30300000  0.21500000  1.0
