# generated using pymatgen
data_TiO2
_symmetry_space_group_name_H-M   'P 1'
_cell_length_a   4.80610000
_cell_length_b   4.80610000
_cell_length_c   2.69760000
_cell_angle_alpha   90.00000000
_cell_angle_beta   90.00000000
_cell_angle_gamma   120.00000000
_symmetry_Int_Tables_number   1
_chemical_formula_structural   TiO2
_chemical_formula_sum   'Ti3 O6'
_cell_volume   53.96271480
_cell_formula_units_Z   3
loop_
 _symmetry_equiv_pos_site_id
 _symmetry_equiv_pos_as_xyz
  1  'x, y, z'
loop_
 _atom_type_symbol
 _atom_type_oxidation_number
  Ti0+  0.0
  O0+  0.0
loop_
 _atom_site_type_symbol
 _atom_site_label
 _atom_site_symmetry_multiplicity
 _atom_site_fract_x
 _atom_site_fract_y
 _atom_site_fract_z
 _atom_site_occupancy
  Ti0+  Ti0  1  0.66666667  0.33333333  0.50000000  1.0
  Ti0+  Ti1  1  0.33333333  0.66666667  0.50000000  1.0
  Ti0+  Ti2  1  0.00000000  0.00000000  0.00000000  1.0
  O0+  O3  1  0.00000000  0.25900000  0.50000000  1.0
  O0+  O4  1  0.74100000  0.74100000  0.50000000  1.0
  O0+  O5  1  0.25900000  0.00000000  0.50000000  1.0
  O0+  O6  1  0.59400000  0.00000000  0.00000000  1.0
  O0+  O7  1  0.00000000  0.59400000  0.00000000  1.0
  O0+  O8  1  0.40600000  0.40600000  0.00000000  1.0
