# generated using pymatgen
data_TiO2
_symmetry_space_group_name_H-M   'P 1'
_cell_length_a   4.92330000
_cell_length_b   2.85630000
_cell_length_c   5.79460000
_cell_angle_alpha   90.00000000
_cell_angle_beta   90.00000000
_cell_angle_gamma   90.00000000
_symmetry_Int_Tables_number   1
_chemical_formula_structural   TiO2
_chemical_formula_sum   'Ti4 O8'
_cell_volume   81.48610930
_cell_formula_units_Z   4
loop_
 _symmetry_equiv_pos_site_id
 _symmetry_equiv_pos_as_xyz
  1  'x, y, z'
loop_
 _atom_type_symbol
 _atom_type_oxidation_number
  Ti0+  0.0
  O0+  0.0
loop_
 _atom_site_type_symbol
 _atom_site_label
 _atom_site_symmetry_multiplicity
 _atom_site_fract_x
 _atom_site_fract_y
 _atom_site_fract_z
 _atom_site_occupancy
  Ti0+  Ti0  1  0.74200000  0.25000000  0.12500000  1.0
  Ti0+  Ti1  1  0.24200000  0.25000000  0.37500000  1.0
  Ti0+  Ti2  1  0.25800000  0.75000000  0.87500000  1.0
  Ti0+  Ti3  1  0.75800000  0.75000000  0.62500000  1.0
  O0+  O4  1  0.85700000  0.25000000  0.43100000  1.0
  O0+  O5  1  0.35700000  0.25000000  0.06900000  1.0
  O0+  O6  1  0.14300000  0.75000000  0.56900000  1.0
  O0+  O7  1  0.64300000  0.75000000  0.93100000  1.0
  O0+  O8  1  0.02900000  0.75000000  0.16500000  1.0
  O0+  O9  1  0.52900000  0.75000000  0.33500000  1.0
  O0+  O10  1  0.97100000  0.25000000  0.83500000  1.0
  O0+  O11  1  0.47100000  0.25000000  0.66500000  1.0
