# generated using pymatgen
data_TiO2
_symmetry_space_group_name_H-M   'P 1'
_cell_length_a   12.17870000
_cell_length_b   3.74120000
_cell_length_c   6.52490000
_cell_angle_alpha   90.00000000
_cell_angle_beta   107.05400000
_cell_angle_gamma   90.00000000
_symmetry_Int_Tables_number   1
_chemical_formula_structural   TiO2
_chemical_formula_sum   'Ti8 O16'
_cell_volume   284.22134056
_cell_formula_units_Z   8
loop_
 _symmetry_equiv_pos_site_id
 _symmetry_equiv_pos_as_xyz
  1  'x, y, z'
loop_
 _atom_type_symbol
 _atom_type_oxidation_number
  Ti4+  4.0
  O2-  -2.0
loop_
 _atom_site_type_symbol
 _atom_site_label
 _atom_site_symmetry_multiplicity
 _atom_site_fract_x
 _atom_site_fract_y
 _atom_site_fract_z
 _atom_site_occupancy
  Ti4+  Ti0  1  0.80300000  0.00000000  0.70800000  1.0
  Ti4+  Ti1  1  0.19700000  0.00000000  0.29200000  1.0
  Ti4+  Ti2  1  0.30300000  0.50000000  0.70800000  1.0
  Ti4+  Ti3  1  0.69700000  0.50000000  0.29200000  1.0
  Ti4+  Ti4  1  0.90100000  0.00000000  0.29500000  1.0
  Ti4+  Ti5  1  0.09900000  0.00000000  0.70500000  1.0
  Ti4+  Ti6  1  0.40100000  0.50000000  0.29500000  1.0
  Ti4+  Ti7  1  0.59900000  0.50000000  0.70500000  1.0
  O2-  O8  1  0.86800000  0.00000000  0.99600000  1.0
  O2-  O9  1  0.13200000  0.00000000  0.00400000  1.0
  O2-  O10  1  0.36800000  0.50000000  0.99600000  1.0
  O2-  O11  1  0.63200000  0.50000000  0.00400000  1.0
  O2-  O12  1  0.73600000  0.00000000  0.34700000  1.0
  O2-  O13  1  0.26400000  0.00000000  0.65300000  1.0
  O2-  O14  1  0.23600000  0.50000000  0.34700000  1.0
  O2-  O15  1  0.76400000  0.50000000  0.65300000  1.0
  O2-  O16  1  0.94000000  0.00000000  0.62900000  1.0
  O2-  O17  1  0.06000000  0.00000000  0.37100000  1.0
  O2-  O18  1  0.44000000  0.50000000  0.62900000  1.0
  O2-  O19  1  0.56000000  0.50000000  0.37100000  1.0
  O2-  O20  1  0.63800000  0.00000000  0.70700000  1.0
  O2-  O21  1  0.36200000  0.00000000  0.29300000  1.0
  O2-  O22  1  0.13800000  0.50000000  0.70700000  1.0
  O2-  O23  1  0.86200000  0.50000000  0.29300000  1.0
