# generated using pymatgen
data_TiO2
_symmetry_space_group_name_H-M   'P 1'
_cell_length_a   18.78190000
_cell_length_b   5.54070000
_cell_length_c   5.13490000
_cell_angle_alpha   90.00000000
_cell_angle_beta   91.05900000
_cell_angle_gamma   90.00000000
_symmetry_Int_Tables_number   1
_chemical_formula_structural   TiO2
_chemical_formula_sum   'Ti16 O32'
_cell_volume   534.27144546
_cell_formula_units_Z   16
loop_
 _symmetry_equiv_pos_site_id
 _symmetry_equiv_pos_as_xyz
  1  'x, y, z'
loop_
 _atom_type_symbol
 _atom_type_oxidation_number
  Ti0+  0.0
  O0+  0.0
loop_
 _atom_site_type_symbol
 _atom_site_label
 _atom_site_symmetry_multiplicity
 _atom_site_fract_x
 _atom_site_fract_y
 _atom_site_fract_z
 _atom_site_occupancy
  Ti0+  Ti0  1  0.87010000  0.16110000  0.00760000  1.0
  Ti0+  Ti1  1  0.12990000  0.16110000  0.49240000  1.0
  Ti0+  Ti2  1  0.12990000  0.83890000  0.99240000  1.0
  Ti0+  Ti3  1  0.87010000  0.83890000  0.50760000  1.0
  Ti0+  Ti4  1  0.74040000  0.66440000  0.77120000  1.0
  Ti0+  Ti5  1  0.25960000  0.66440000  0.72880000  1.0
  Ti0+  Ti6  1  0.25960000  0.33560000  0.22880000  1.0
  Ti0+  Ti7  1  0.74040000  0.33560000  0.27120000  1.0
  Ti0+  Ti8  1  0.62010000  0.16690000  0.76530000  1.0
  Ti0+  Ti9  1  0.37990000  0.16690000  0.73470000  1.0
  Ti0+  Ti10  1  0.37990000  0.83310000  0.23470000  1.0
  Ti0+  Ti11  1  0.62010000  0.83310000  0.26530000  1.0
  Ti0+  Ti12  1  0.50000000  0.67100000  0.75000000  1.0
  Ti0+  Ti13  1  0.50000000  0.32900000  0.25000000  1.0
  Ti0+  Ti14  1  0.00000000  0.65920000  0.25000000  1.0
  Ti0+  Ti15  1  0.00000000  0.34080000  0.75000000  1.0
  O0+  O16  1  0.81360000  0.10830000  0.32810000  1.0
  O0+  O17  1  0.18640000  0.10830000  0.17190000  1.0
  O0+  O18  1  0.18640000  0.89170000  0.67190000  1.0
  O0+  O19  1  0.81360000  0.89170000  0.82810000  1.0
  O0+  O20  1  0.68760000  0.62970000  0.09560000  1.0
  O0+  O21  1  0.31240000  0.62970000  0.40440000  1.0
  O0+  O22  1  0.31240000  0.37030000  0.90440000  1.0
  O0+  O23  1  0.68760000  0.37030000  0.59560000  1.0
  O0+  O24  1  0.56550000  0.87870000  0.92120000  1.0
  O0+  O25  1  0.43450000  0.87870000  0.57880000  1.0
  O0+  O26  1  0.43450000  0.12130000  0.07880000  1.0
  O0+  O27  1  0.56550000  0.12130000  0.42120000  1.0
  O0+  O28  1  0.44540000  0.62150000  0.07750000  1.0
  O0+  O29  1  0.55460000  0.62150000  0.42250000  1.0
  O0+  O30  1  0.55460000  0.37850000  0.92250000  1.0
  O0+  O31  1  0.44540000  0.37850000  0.57750000  1.0
  O0+  O32  1  0.32530000  0.12590000  0.41180000  1.0
  O0+  O33  1  0.67470000  0.12590000  0.08820000  1.0
  O0+  O34  1  0.67470000  0.87410000  0.58820000  1.0
  O0+  O35  1  0.32530000  0.87410000  0.91180000  1.0
  O0+  O36  1  0.20250000  0.60590000  0.04720000  1.0
  O0+  O37  1  0.79750000  0.60590000  0.45280000  1.0
  O0+  O38  1  0.79750000  0.39410000  0.95280000  1.0
  O0+  O39  1  0.20250000  0.39410000  0.54720000  1.0
  O0+  O40  1  0.92520000  0.88730000  0.18950000  1.0
  O0+  O41  1  0.07480000  0.88730000  0.31050000  1.0
  O0+  O42  1  0.07480000  0.11270000  0.81050000  1.0
  O0+  O43  1  0.92520000  0.11270000  0.68950000  1.0
  O0+  O44  1  0.94530000  0.61390000  0.57140000  1.0
  O0+  O45  1  0.05470000  0.61390000  0.92860000  1.0
  O0+  O46  1  0.05470000  0.38610000  0.42860000  1.0
  O0+  O47  1  0.94530000  0.38610000  0.07140000  1.0
