# generated using pymatgen
data_TiO2
_symmetry_space_group_name_H-M   'P 1'
_cell_length_a   17.48760000
_cell_length_b   4.60880000
_cell_length_c   5.57230000
_cell_angle_alpha   90.00000000
_cell_angle_beta   92.48500000
_cell_angle_gamma   90.00000000
_symmetry_Int_Tables_number   1
_chemical_formula_structural   TiO2
_chemical_formula_sum   'Ti14 O28'
_cell_volume   448.68749236
_cell_formula_units_Z   14
loop_
 _symmetry_equiv_pos_site_id
 _symmetry_equiv_pos_as_xyz
  1  'x, y, z'
loop_
 _atom_type_symbol
 _atom_type_oxidation_number
  Ti0+  0.0
  O0+  0.0
loop_
 _atom_site_type_symbol
 _atom_site_label
 _atom_site_symmetry_multiplicity
 _atom_site_fract_x
 _atom_site_fract_y
 _atom_site_fract_z
 _atom_site_occupancy
  Ti0+  Ti0  1  0.78780000  0.50150000  0.15730000  1.0
  Ti0+  Ti1  1  0.21220000  0.00150000  0.34270000  1.0
  Ti0+  Ti2  1  0.21220000  0.49850000  0.84270000  1.0
  Ti0+  Ti3  1  0.78780000  0.99850000  0.65730000  1.0
  Ti0+  Ti4  1  0.50000000  0.50000000  0.50000000  1.0
  Ti0+  Ti5  1  0.50000000  0.00000000  0.00000000  1.0
  Ti0+  Ti6  1  0.92900000  0.00220000  0.31370000  1.0
  Ti0+  Ti7  1  0.07100000  0.50220000  0.18630000  1.0
  Ti0+  Ti8  1  0.07100000  0.99780000  0.68630000  1.0
  Ti0+  Ti9  1  0.92900000  0.49780000  0.81370000  1.0
  Ti0+  Ti10  1  0.64460000  0.99950000  0.31350000  1.0
  Ti0+  Ti11  1  0.35540000  0.49950000  0.18650000  1.0
  Ti0+  Ti12  1  0.35540000  0.00050000  0.68650000  1.0
  Ti0+  Ti13  1  0.64460000  0.50050000  0.81350000  1.0
  O0+  O14  1  0.97730000  0.27340000  0.11560000  1.0
  O0+  O15  1  0.02270000  0.77340000  0.38440000  1.0
  O0+  O16  1  0.02270000  0.72660000  0.88440000  1.0
  O0+  O17  1  0.97730000  0.22660000  0.61560000  1.0
  O0+  O18  1  0.69060000  0.29160000  0.09430000  1.0
  O0+  O19  1  0.30940000  0.79160000  0.40570000  1.0
  O0+  O20  1  0.30940000  0.70840000  0.90570000  1.0
  O0+  O21  1  0.69060000  0.20840000  0.59430000  1.0
  O0+  O22  1  0.40100000  0.29730000  0.47150000  1.0
  O0+  O23  1  0.59900000  0.79730000  0.02850000  1.0
  O0+  O24  1  0.59900000  0.70270000  0.52850000  1.0
  O0+  O25  1  0.40100000  0.20270000  0.97150000  1.0
  O0+  O26  1  0.83550000  0.23020000  0.36830000  1.0
  O0+  O27  1  0.16450000  0.73020000  0.13170000  1.0
  O0+  O28  1  0.16450000  0.76980000  0.63170000  1.0
  O0+  O29  1  0.83550000  0.26980000  0.86830000  1.0
  O0+  O30  1  0.54520000  0.30010000  0.78790000  1.0
  O0+  O31  1  0.45480000  0.80010000  0.71210000  1.0
  O0+  O32  1  0.45480000  0.69990000  0.21210000  1.0
  O0+  O33  1  0.54520000  0.19990000  0.28790000  1.0
  O0+  O34  1  0.88120000  0.72930000  0.10600000  1.0
  O0+  O35  1  0.11880000  0.22930000  0.39400000  1.0
  O0+  O36  1  0.11880000  0.27070000  0.89400000  1.0
  O0+  O37  1  0.88120000  0.77070000  0.60600000  1.0
  O0+  O38  1  0.74050000  0.77940000  0.34800000  1.0
  O0+  O39  1  0.25950000  0.27940000  0.15200000  1.0
  O0+  O40  1  0.25950000  0.22060000  0.65200000  1.0
  O0+  O41  1  0.74050000  0.72060000  0.84800000  1.0
