# generated using pymatgen
data_TiO2
_symmetry_space_group_name_H-M   'P 1'
_cell_length_a   5.22880000
_cell_length_b   5.59710000
_cell_length_c   26.92880000
_cell_angle_alpha   91.81700000
_cell_angle_beta   90.10600000
_cell_angle_gamma   90.52400000
_symmetry_Int_Tables_number   1
_chemical_formula_structural   TiO2
_chemical_formula_sum   'Ti22 O44'
_cell_volume   787.67038994
_cell_formula_units_Z   22
loop_
 _symmetry_equiv_pos_site_id
 _symmetry_equiv_pos_as_xyz
  1  'x, y, z'
loop_
 _atom_type_symbol
 _atom_type_oxidation_number
  Ti0+  0.0
  O0+  0.0
loop_
 _atom_site_type_symbol
 _atom_site_label
 _atom_site_symmetry_multiplicity
 _atom_site_fract_x
 _atom_site_fract_y
 _atom_site_fract_z
 _atom_site_occupancy
  Ti0+  Ti0  1  0.00000000  0.00000000  0.00000000  1.0
  Ti0+  Ti1  1  0.50420000  0.23390000  0.08990000  1.0
  Ti0+  Ti2  1  0.01300000  0.46560000  0.18070000  1.0
  Ti0+  Ti3  1  0.52180000  0.66510000  0.27020000  1.0
  Ti0+  Ti4  1  0.49460000  0.75580000  0.91010000  1.0
  Ti0+  Ti5  1  0.72570000  0.49650000  0.99940000  1.0
  Ti0+  Ti6  1  0.22300000  0.73040000  0.08940000  1.0
  Ti0+  Ti7  1  0.71750000  0.96130000  0.18030000  1.0
  Ti0+  Ti8  1  0.22480000  0.25340000  0.90910000  1.0
  Ti0+  Ti9  1  0.20700000  0.15900000  0.26920000  1.0
  Ti0+  Ti10  1  0.10620000  0.95820000  0.36610000  1.0
  Ti0+  Ti11  1  0.56510000  0.46920000  0.36940000  1.0
  Ti0+  Ti12  1  0.98630000  0.51150000  0.82070000  1.0
  Ti0+  Ti13  1  0.71670000  0.01080000  0.81850000  1.0
  Ti0+  Ti14  1  0.97590000  0.07710000  0.64050000  1.0
  Ti0+  Ti15  1  0.47960000  0.26690000  0.72990000  1.0
  Ti0+  Ti16  1  0.68930000  0.57560000  0.63940000  1.0
  Ti0+  Ti17  1  0.19940000  0.76640000  0.72800000  1.0
  Ti0+  Ti18  1  0.06990000  0.64160000  0.45490000  1.0
  Ti0+  Ti19  1  0.57890000  0.14070000  0.45650000  1.0
  Ti0+  Ti20  1  0.16090000  0.38810000  0.54770000  1.0
  Ti0+  Ti21  1  0.50030000  0.89170000  0.54830000  1.0
  O0+  O22  1  0.47440000  0.54010000  0.05040000  1.0
  O0+  O23  1  0.47040000  0.06010000  0.87040000  1.0
  O0+  O24  1  0.97550000  0.30280000  0.96070000  1.0
  O0+  O25  1  0.97200000  0.76860000  0.14180000  1.0
  O0+  O26  1  0.45310000  0.96830000  0.22800000  1.0
  O0+  O27  1  0.25140000  0.04090000  0.05090000  1.0
  O0+  O28  1  0.75180000  0.27120000  0.14230000  1.0
  O0+  O29  1  0.23900000  0.56160000  0.87150000  1.0
  O0+  O30  1  0.74570000  0.80500000  0.96140000  1.0
  O0+  O31  1  0.28320000  0.47040000  0.22720000  1.0
  O0+  O32  1  0.75300000  0.19240000  0.03680000  1.0
  O0+  O33  1  0.25060000  0.42490000  0.12540000  1.0
  O0+  O34  1  0.79000000  0.66690000  0.22200000  1.0
  O0+  O35  1  0.25760000  0.85390000  0.30360000  1.0
  O0+  O36  1  0.24630000  0.94890000  0.94640000  1.0
  O0+  O37  1  0.97430000  0.69000000  0.03620000  1.0
  O0+  O38  1  0.47470000  0.92360000  0.12570000  1.0
  O0+  O39  1  0.94610000  0.16490000  0.22000000  1.0
  O0+  O40  1  0.47690000  0.44720000  0.94560000  1.0
  O0+  O41  1  0.45540000  0.35790000  0.30480000  1.0
  O0+  O42  1  0.98260000  0.18890000  0.32700000  1.0
  O0+  O43  1  0.27680000  0.62930000  0.39240000  1.0
  O0+  O44  1  0.39320000  0.12910000  0.39240000  1.0
  O0+  O45  1  0.72590000  0.69690000  0.33170000  1.0
  O0+  O46  1  0.97040000  0.81970000  0.78240000  1.0
  O0+  O47  1  0.72220000  0.32120000  0.78310000  1.0
  O0+  O48  1  0.73870000  0.70470000  0.85680000  1.0
  O0+  O49  1  0.97220000  0.20280000  0.85570000  1.0
  O0+  O50  1  0.41570000  0.55890000  0.68550000  1.0
  O0+  O51  1  0.91690000  0.37010000  0.60380000  1.0
  O0+  O52  1  0.25110000  0.06250000  0.68700000  1.0
  O0+  O53  1  0.74400000  0.87210000  0.60450000  1.0
  O0+  O54  1  0.75040000  0.24720000  0.68180000  1.0
  O0+  O55  1  0.22600000  0.45910000  0.76520000  1.0
  O0+  O56  1  0.92090000  0.74550000  0.68120000  1.0
  O0+  O57  1  0.46640000  0.95570000  0.76380000  1.0
  O0+  O58  1  0.90130000  0.90290000  0.42680000  1.0
  O0+  O59  1  0.29210000  0.34210000  0.48220000  1.0
  O0+  O60  1  0.37610000  0.84670000  0.48200000  1.0
  O0+  O61  1  0.77240000  0.40430000  0.42740000  1.0
  O0+  O62  1  0.24550000  0.07340000  0.57850000  1.0
  O0+  O63  1  0.41790000  0.57230000  0.57770000  1.0
  O0+  O64  1  0.72020000  0.11620000  0.51950000  1.0
  O0+  O65  1  0.94900000  0.61590000  0.51880000  1.0
