# generated using pymatgen
data_TiO2
_symmetry_space_group_name_H-M   'P 1'
_cell_length_a   9.42800000
_cell_length_b   4.98500000
_cell_length_c   4.83700000
_cell_angle_alpha   90.00000000
_cell_angle_beta   90.00000000
_cell_angle_gamma   90.00000000
_symmetry_Int_Tables_number   1
_chemical_formula_structural   TiO2
_chemical_formula_sum   'Ti8 O16'
_cell_volume   227.33213146
_cell_formula_units_Z   8
loop_
 _symmetry_equiv_pos_site_id
 _symmetry_equiv_pos_as_xyz
  1  'x, y, z'
loop_
 _atom_type_symbol
 _atom_type_oxidation_number
  Ti4+  4.0
  O2-  -2.0
loop_
 _atom_site_type_symbol
 _atom_site_label
 _atom_site_symmetry_multiplicity
 _atom_site_fract_x
 _atom_site_fract_y
 _atom_site_fract_z
 _atom_site_occupancy
  Ti4+  Ti0  1  0.38500000  0.04200000  0.25100000  1.0
  Ti4+  Ti1  1  0.88500000  0.45800000  0.74900000  1.0
  Ti4+  Ti2  1  0.61500000  0.54200000  0.24900000  1.0
  Ti4+  Ti3  1  0.11500000  0.95800000  0.75100000  1.0
  Ti4+  Ti4  1  0.61500000  0.95800000  0.74900000  1.0
  Ti4+  Ti5  1  0.11500000  0.54200000  0.25100000  1.0
  Ti4+  Ti6  1  0.38500000  0.45800000  0.75100000  1.0
  Ti4+  Ti7  1  0.88500000  0.04200000  0.24900000  1.0
  O2-  O8  1  0.28900000  0.37500000  0.36200000  1.0
  O2-  O9  1  0.78900000  0.12500000  0.63800000  1.0
  O2-  O10  1  0.71100000  0.87500000  0.13800000  1.0
  O2-  O11  1  0.21100000  0.62500000  0.86200000  1.0
  O2-  O12  1  0.71100000  0.62500000  0.63800000  1.0
  O2-  O13  1  0.21100000  0.87500000  0.36200000  1.0
  O2-  O14  1  0.28900000  0.12500000  0.86200000  1.0
  O2-  O15  1  0.78900000  0.37500000  0.13800000  1.0
  O2-  O16  1  0.47500000  0.73700000  0.00400000  1.0
  O2-  O17  1  0.97500000  0.76300000  0.99600000  1.0
  O2-  O18  1  0.52500000  0.23700000  0.49600000  1.0
  O2-  O19  1  0.02500000  0.26300000  0.50400000  1.0
  O2-  O20  1  0.52500000  0.26300000  0.99600000  1.0
  O2-  O21  1  0.02500000  0.23700000  0.00400000  1.0
  O2-  O22  1  0.47500000  0.76300000  0.50400000  1.0
  O2-  O23  1  0.97500000  0.73700000  0.49600000  1.0
