# generated using pymatgen
data_TiO
_symmetry_space_group_name_H-M   'P 1'
_cell_length_a   5.85500000
_cell_length_b   9.34000000
_cell_length_c   4.14200000
_cell_angle_alpha   90.00000000
_cell_angle_beta   90.00000000
_cell_angle_gamma   107.53000000
_symmetry_Int_Tables_number   1
_chemical_formula_structural   TiO
_chemical_formula_sum   'Ti10 O10'
_cell_volume   215.98898750
_cell_formula_units_Z   10
loop_
 _symmetry_equiv_pos_site_id
 _symmetry_equiv_pos_as_xyz
  1  'x, y, z'
loop_
 _atom_type_symbol
 _atom_type_oxidation_number
  Ti0+  0.0
  O0+  0.0
loop_
 _atom_site_type_symbol
 _atom_site_label
 _atom_site_symmetry_multiplicity
 _atom_site_fract_x
 _atom_site_fract_y
 _atom_site_fract_z
 _atom_site_occupancy
  Ti0+  Ti0  1  0.50000000  0.00000000  0.00000000  1.0
  Ti0+  Ti1  1  0.50000000  0.50000000  0.50000000  1.0
  Ti0+  Ti2  1  0.17000000  0.34000000  0.00000000  1.0
  Ti0+  Ti3  1  0.83000000  0.66000000  0.00000000  1.0
  Ti0+  Ti4  1  0.17000000  0.84000000  0.50000000  1.0
  Ti0+  Ti5  1  0.83000000  0.16000000  0.50000000  1.0
  Ti0+  Ti6  1  0.66900000  0.34200000  0.00000000  1.0
  Ti0+  Ti7  1  0.33100000  0.65800000  0.00000000  1.0
  Ti0+  Ti8  1  0.66900000  0.84200000  0.50000000  1.0
  Ti0+  Ti9  1  0.33100000  0.15800000  0.50000000  1.0
  O0+  O10  1  0.34300000  0.17500000  0.00000000  1.0
  O0+  O11  1  0.65700000  0.82500000  0.00000000  1.0
  O0+  O12  1  0.34300000  0.67500000  0.50000000  1.0
  O0+  O13  1  0.65700000  0.32500000  0.50000000  1.0
  O0+  O14  1  0.83300000  0.17900000  0.00000000  1.0
  O0+  O15  1  0.16700000  0.82100000  0.00000000  1.0
  O0+  O16  1  0.83300000  0.67900000  0.50000000  1.0
  O0+  O17  1  0.16700000  0.32100000  0.50000000  1.0
  O0+  O18  1  0.00000000  0.50000000  0.00000000  1.0
  O0+  O19  1  0.00000000  0.00000000  0.50000000  1.0
