# generated using pymatgen
data_Li0.5Mn3.5F8
_symmetry_space_group_name_H-M   'P 1'
_cell_length_a   5.73118425
_cell_length_b   4.79573333
_cell_length_c   5.82582778
_cell_angle_alpha   90.00000000
_cell_angle_beta   112.22622486
_cell_angle_gamma   90.00000000
_symmetry_Int_Tables_number   1
_chemical_formula_structural   Li0.5Mn3.5F8
_chemical_formula_sum   'Li0.5 Mn3.5 F8'
_cell_volume   148.22660165
_cell_formula_units_Z   1
loop_
 _symmetry_equiv_pos_site_id
 _symmetry_equiv_pos_as_xyz
  1  'x, y, z'
loop_
 _atom_type_symbol
 _atom_type_oxidation_number
  Li0+  0.0
  Mn0+  0.0
  F0+  0.0
loop_
 _atom_site_type_symbol
 _atom_site_label
 _atom_site_symmetry_multiplicity
 _atom_site_fract_x
 _atom_site_fract_y
 _atom_site_fract_z
 _atom_site_occupancy
  Li0+  Li0  1  0.500000  0.000000  0.500000  0.25
  Mn0+  Mn1  1  0.500000  0.000000  0.500000  0.75
  Li0+  Li2  1  0.500000  0.500000  0.000000  0.25
  Mn0+  Mn3  1  0.500000  0.500000  0.000000  0.75
  Mn0+  Mn4  1  0.000000  0.500000  0.500000  1.0
  Mn0+  Mn5  1  0.000000  0.000000  0.000000  1.0
  F0+  F6  1  0.848920  0.703140  0.148347  1.0
  F0+  F7  1  0.151080  0.203140  0.351653  1.0
  F0+  F8  1  0.151080  0.296860  0.851653  1.0
  F0+  F9  1  0.848920  0.796860  0.648347  1.0
  F0+  F10  1  0.339520  0.809127  0.147747  1.0
  F0+  F11  1  0.660480  0.309127  0.352253  1.0
  F0+  F12  1  0.660480  0.190873  0.852253  1.0
  F0+  F13  1  0.339520  0.690873  0.647747  1.0
