# generated using pymatgen
data_Li1.5Ti0.5
_symmetry_space_group_name_H-M   'P 1'
_cell_length_a   3.45266667
_cell_length_b   3.45266667
_cell_length_c   3.29726667
_cell_angle_alpha   90.00000000
_cell_angle_beta   90.00000000
_cell_angle_gamma   90.00000000
_symmetry_Int_Tables_number   1
_chemical_formula_structural   Li1.5Ti0.5
_chemical_formula_sum   'Li1.5 Ti0.5'
_cell_volume   39.30640965
_cell_formula_units_Z   1
loop_
 _symmetry_equiv_pos_site_id
 _symmetry_equiv_pos_as_xyz
  1  'x, y, z'
loop_
 _atom_type_symbol
 _atom_type_oxidation_number
  Li0+  0.0
  Ti0+  0.0
loop_
 _atom_site_type_symbol
 _atom_site_label
 _atom_site_symmetry_multiplicity
 _atom_site_fract_x
 _atom_site_fract_y
 _atom_site_fract_z
 _atom_site_occupancy
  Li0+  Li0  1  0.000000  0.000000  0.000000  0.75
  Ti0+  Ti1  1  0.000000  0.000000  0.000000  0.25
  Li0+  Li2  1  0.500000  0.500000  0.500000  0.75
  Ti0+  Ti3  1  0.500000  0.500000  0.500000  0.25
