# generated using pymatgen
data_Li1.5Mn2.5F8
_symmetry_space_group_name_H-M   'P 1'
_cell_length_a   5.42300000
_cell_length_b   4.64000000
_cell_length_c   5.70600000
_cell_angle_alpha   90.00000000
_cell_angle_beta   113.16000000
_cell_angle_gamma   90.00000000
_symmetry_Int_Tables_number   1
_chemical_formula_structural   Li1.5Mn2.5F8
_chemical_formula_sum   'Li1.5 Mn2.5 F8'
_cell_volume   132.00751049
_cell_formula_units_Z   1
loop_
 _symmetry_equiv_pos_site_id
 _symmetry_equiv_pos_as_xyz
  1  'x, y, z'
loop_
 _atom_type_symbol
 _atom_type_oxidation_number
  Li0+  0.0
  Mn0+  0.0
  F0+  0.0
loop_
 _atom_site_type_symbol
 _atom_site_label
 _atom_site_symmetry_multiplicity
 _atom_site_fract_x
 _atom_site_fract_y
 _atom_site_fract_z
 _atom_site_occupancy
  Li0+  Li0  1  0.500000  0.000000  0.500000  0.75
  Mn0+  Mn1  1  0.500000  0.000000  0.500000  0.25
  Li0+  Li2  1  0.500000  0.500000  0.000000  0.75
  Mn0+  Mn3  1  0.500000  0.500000  0.000000  0.25
  Mn0+  Mn4  1  0.000000  0.500000  0.500000  1.0
  Mn0+  Mn5  1  0.000000  0.000000  0.000000  1.0
  F0+  F6  1  0.851400  0.718700  0.140400  1.0
  F0+  F7  1  0.148600  0.218700  0.359600  1.0
  F0+  F8  1  0.148600  0.281300  0.859600  1.0
  F0+  F9  1  0.851400  0.781300  0.640400  1.0
  F0+  F10  1  0.323200  0.818100  0.138600  1.0
  F0+  F11  1  0.676800  0.318100  0.361400  1.0
  F0+  F12  1  0.676800  0.181900  0.861400  1.0
  F0+  F13  1  0.323200  0.681900  0.638600  1.0
