# generated using pymatgen
data_Li1Ti0.5Mn4.5F12
_symmetry_space_group_name_H-M   'P 1'
_cell_length_a   4.79346667
_cell_length_b   4.79346667
_cell_length_c   9.57676667
_cell_angle_alpha   90.00000000
_cell_angle_beta   90.00000000
_cell_angle_gamma   90.00000000
_symmetry_Int_Tables_number   1
_chemical_formula_structural   Li1Ti0.5Mn4.5F12
_chemical_formula_sum   'Li1 Ti0.5 Mn4.5 F12'
_cell_volume   220.04845797
_cell_formula_units_Z   1
loop_
 _symmetry_equiv_pos_site_id
 _symmetry_equiv_pos_as_xyz
  1  'x, y, z'
loop_
 _atom_type_symbol
 _atom_type_oxidation_number
  Li0+  0.0
  Ti0+  0.0
  Mn0+  0.0
  F0+  0.0
loop_
 _atom_site_type_symbol
 _atom_site_label
 _atom_site_symmetry_multiplicity
 _atom_site_fract_x
 _atom_site_fract_y
 _atom_site_fract_z
 _atom_site_occupancy
  Li0+  Li0  1  0.000000  0.000000  0.164678  0.25
  Mn0+  Mn1  1  0.000000  0.000000  0.164678  0.75
  Li0+  Li2  1  0.500000  0.500000  0.664678  0.25
  Mn0+  Mn3  1  0.500000  0.500000  0.664678  0.75
  Li0+  Li4  1  0.000000  0.000000  0.835322  0.25
  Mn0+  Mn5  1  0.000000  0.000000  0.835322  0.75
  Li0+  Li6  1  0.500000  0.500000  0.335322  0.25
  Mn0+  Mn7  1  0.500000  0.500000  0.335322  0.75
  Ti0+  Ti8  1  0.500000  0.500000  0.000000  0.25
  Mn0+  Mn9  1  0.500000  0.500000  0.000000  0.75
  Ti0+  Ti10  1  0.000000  0.000000  0.500000  0.25
  Mn0+  Mn11  1  0.000000  0.000000  0.500000  0.75
  F0+  F12  1  0.305293  0.694707  0.162141  1.0
  F0+  F13  1  0.694707  0.305293  0.162141  1.0
  F0+  F14  1  0.194707  0.194707  0.662141  1.0
  F0+  F15  1  0.805293  0.805293  0.662141  1.0
  F0+  F16  1  0.694707  0.305293  0.837859  1.0
  F0+  F17  1  0.305293  0.694707  0.837859  1.0
  F0+  F18  1  0.805293  0.805293  0.337859  1.0
  F0+  F19  1  0.194707  0.194707  0.337859  1.0
  F0+  F20  1  0.201673  0.201673  0.000000  1.0
  F0+  F21  1  0.798327  0.798327  0.000000  1.0
  F0+  F22  1  0.298327  0.701673  0.500000  1.0
  F0+  F23  1  0.701673  0.298327  0.500000  1.0
