# generated using pymatgen
data_Li2Ti3Mn(OF)5
_symmetry_space_group_name_H-M   'P 1'
_cell_length_a   9.96131284
_cell_length_b   4.99023333
_cell_length_c   7.33229528
_cell_angle_alpha   90.00000000
_cell_angle_beta   110.85736013
_cell_angle_gamma   90.00000000
_symmetry_Int_Tables_number   1
_chemical_formula_structural   Li2Ti3Mn(OF)5
_chemical_formula_sum   'Li4 Ti6 Mn2 O10 F10'
_cell_volume   340.59840037
_cell_formula_units_Z   2
loop_
 _symmetry_equiv_pos_site_id
 _symmetry_equiv_pos_as_xyz
  1  'x, y, z'
loop_
 _atom_type_symbol
 _atom_type_oxidation_number
  Li0+  0.0
  Ti0+  0.0
  Mn0+  0.0
  O0+  0.0
  F0+  0.0
loop_
 _atom_site_type_symbol
 _atom_site_label
 _atom_site_symmetry_multiplicity
 _atom_site_fract_x
 _atom_site_fract_y
 _atom_site_fract_z
 _atom_site_occupancy
  Li0+  Li0  1  0.635337  0.502150  0.396200  0.5
  Ti0+  Ti1  1  0.635337  0.502150  0.396200  0.5
  Li0+  Li2  1  0.635337  0.497850  0.896200  0.5
  Ti0+  Ti3  1  0.635337  0.497850  0.896200  0.5
  Li0+  Li4  1  0.364663  0.497850  0.603800  0.5
  Ti0+  Ti5  1  0.364663  0.497850  0.603800  0.5
  Li0+  Li6  1  0.364663  0.502150  0.103800  0.5
  Ti0+  Ti7  1  0.364663  0.502150  0.103800  0.5
  Li0+  Li8  1  0.135337  1.002150  0.896200  0.5
  Ti0+  Ti9  1  0.135337  1.002150  0.896200  0.5
  Li0+  Li10  1  0.135337  -0.002150  0.396200  0.5
  Ti0+  Ti11  1  0.135337  -0.002150  0.396200  0.5
  Li0+  Li12  1  0.864663  -0.002150  0.103800  0.5
  Ti0+  Ti13  1  0.864663  -0.002150  0.103800  0.5
  Li0+  Li14  1  0.864663  1.002150  0.603800  0.5
  Ti0+  Ti15  1  0.864663  1.002150  0.603800  0.5
  Ti0+  Ti16  1  0.000000  0.500000  0.500000  0.5
  Mn0+  Mn17  1  0.000000  0.500000  0.500000  0.5
  Ti0+  Ti18  1  0.000000  0.500000  0.000000  0.5
  Mn0+  Mn19  1  0.000000  0.500000  0.000000  0.5
  Ti0+  Ti20  1  0.500000  0.000000  0.000000  0.5
  Mn0+  Mn21  1  0.500000  0.000000  0.000000  0.5
  Ti0+  Ti22  1  0.500000  0.000000  0.500000  0.5
  Mn0+  Mn23  1  0.500000  0.000000  0.500000  0.5
  O0+  O24  1  0.318720  0.844537  0.966960  0.5
  F0+  F25  1  0.318720  0.844537  0.966960  0.5
  O0+  O26  1  0.318720  0.155463  0.466960  0.5
  F0+  F27  1  0.318720  0.155463  0.466960  0.5
  O0+  O28  1  0.681280  0.155463  0.033040  0.5
  F0+  F29  1  0.681280  0.155463  0.033040  0.5
  O0+  O30  1  0.681280  0.844537  0.533040  0.5
  F0+  F31  1  0.681280  0.844537  0.533040  0.5
  O0+  O32  1  0.818720  0.344537  0.466960  0.5
  F0+  F33  1  0.818720  0.344537  0.466960  0.5
  O0+  O34  1  0.818720  0.655463  0.966960  0.5
  F0+  F35  1  0.818720  0.655463  0.966960  0.5
  O0+  O36  1  0.181280  0.655463  0.533040  0.5
  F0+  F37  1  0.181280  0.655463  0.533040  0.5
  O0+  O38  1  0.181280  0.344537  0.033040  0.5
  F0+  F39  1  0.181280  0.344537  0.033040  0.5
  O0+  O40  1  0.415280  0.319857  0.866490  0.5
  F0+  F41  1  0.415280  0.319857  0.866490  0.5
  O0+  O42  1  0.415280  0.680143  0.366490  0.5
  F0+  F43  1  0.415280  0.680143  0.366490  0.5
  O0+  O44  1  0.584720  0.680143  0.133510  0.5
  F0+  F45  1  0.584720  0.680143  0.133510  0.5
  O0+  O46  1  0.584720  0.319857  0.633510  0.5
  F0+  F47  1  0.584720  0.319857  0.633510  0.5
  O0+  O48  1  0.915280  0.819857  0.366490  0.5
  F0+  F49  1  0.915280  0.819857  0.366490  0.5
  O0+  O50  1  0.915280  0.180143  0.866490  0.5
  F0+  F51  1  0.915280  0.180143  0.866490  0.5
  O0+  O52  1  0.084720  0.180143  0.633510  0.5
  F0+  F53  1  0.084720  0.180143  0.633510  0.5
  O0+  O54  1  0.084720  0.819857  0.133510  0.5
  F0+  F55  1  0.084720  0.819857  0.133510  0.5
  O0+  O56  1  0.000000  0.296147  0.250000  0.5
  F0+  F57  1  0.000000  0.296147  0.250000  0.5
  O0+  O58  1  0.000000  0.703853  0.750000  0.5
  F0+  F59  1  0.000000  0.703853  0.750000  0.5
  O0+  O60  1  0.500000  0.796147  0.750000  0.5
  F0+  F61  1  0.500000  0.796147  0.750000  0.5
  O0+  O62  1  0.500000  0.203853  0.250000  0.5
  F0+  F63  1  0.500000  0.203853  0.250000  0.5
