# generated using pymatgen
data_Li2Ti3Mn(OF)5
_symmetry_space_group_name_H-M   'P 1'
_cell_length_a   9.95947584
_cell_length_b   4.98546667
_cell_length_c   7.34234076
_cell_angle_alpha   90.00000000
_cell_angle_beta   110.68146380
_cell_angle_gamma   90.00000000
_symmetry_Int_Tables_number   1
_chemical_formula_structural   Li2Ti3Mn(OF)5
_chemical_formula_sum   'Li4 Ti6 Mn2 O10 F10'
_cell_volume   341.07328873
_cell_formula_units_Z   2
loop_
 _symmetry_equiv_pos_site_id
 _symmetry_equiv_pos_as_xyz
  1  'x, y, z'
loop_
 _atom_type_symbol
 _atom_type_oxidation_number
  Li0+  0.0
  Ti0+  0.0
  Mn0+  0.0
  O0+  0.0
  F0+  0.0
loop_
 _atom_site_type_symbol
 _atom_site_label
 _atom_site_symmetry_multiplicity
 _atom_site_fract_x
 _atom_site_fract_y
 _atom_site_fract_z
 _atom_site_occupancy
  Li0+  Li0  1  0.885167  0.252400  0.146467  0.5
  Ti0+  Ti1  1  0.885167  0.252400  0.146467  0.5
  Li0+  Li2  1  0.614833  0.252400  0.853533  0.5
  Ti0+  Ti3  1  0.614833  0.252400  0.853533  0.5
  Li0+  Li4  1  0.114833  0.747600  0.853533  0.5
  Ti0+  Ti5  1  0.114833  0.747600  0.853533  0.5
  Li0+  Li6  1  0.385167  0.747600  0.146467  0.5
  Ti0+  Ti7  1  0.385167  0.747600  0.146467  0.5
  Li0+  Li8  1  0.613867  0.252800  0.353533  0.5
  Ti0+  Ti9  1  0.613867  0.252800  0.353533  0.5
  Li0+  Li10  1  0.886133  0.252800  0.646467  0.5
  Ti0+  Ti11  1  0.886133  0.252800  0.646467  0.5
  Li0+  Li12  1  0.386133  0.747200  0.646467  0.5
  Ti0+  Ti13  1  0.386133  0.747200  0.646467  0.5
  Li0+  Li14  1  0.113867  0.747200  0.353533  0.5
  Ti0+  Ti15  1  0.113867  0.747200  0.353533  0.5
  Ti0+  Ti16  1  0.748700  0.748867  0.249367  0.5
  Mn0+  Mn17  1  0.748700  0.748867  0.249367  0.5
  Ti0+  Ti18  1  0.751300  0.748867  0.750633  0.5
  Mn0+  Mn19  1  0.751300  0.748867  0.750633  0.5
  Ti0+  Ti20  1  0.251300  0.251133  0.750633  0.5
  Mn0+  Mn21  1  0.251300  0.251133  0.750633  0.5
  Ti0+  Ti22  1  0.248700  0.251133  0.249367  0.5
  Mn0+  Mn23  1  0.248700  0.251133  0.249367  0.5
  O0+  O24  1  0.930133  0.590267  0.281733  0.5
  F0+  F25  1  0.930133  0.590267  0.281733  0.5
  O0+  O26  1  0.569867  0.590267  0.718267  0.5
  F0+  F27  1  0.569867  0.590267  0.718267  0.5
  O0+  O28  1  0.069867  0.409733  0.718267  0.5
  F0+  F29  1  0.069867  0.409733  0.718267  0.5
  O0+  O30  1  0.430133  0.409733  0.281733  0.5
  F0+  F31  1  0.430133  0.409733  0.281733  0.5
  O0+  O32  1  0.568200  0.904400  0.217267  0.5
  F0+  F33  1  0.568200  0.904400  0.217267  0.5
  O0+  O34  1  0.931800  0.904400  0.782733  0.5
  F0+  F35  1  0.931800  0.904400  0.782733  0.5
  O0+  O36  1  0.431800  0.095600  0.782733  0.5
  F0+  F37  1  0.431800  0.095600  0.782733  0.5
  O0+  O38  1  0.068200  0.095600  0.217267  0.5
  F0+  F39  1  0.068200  0.095600  0.217267  0.5
  O0+  O40  1  0.833733  0.072667  0.381533  0.5
  F0+  F41  1  0.833733  0.072667  0.381533  0.5
  O0+  O42  1  0.666267  0.072667  0.618467  0.5
  F0+  F43  1  0.666267  0.072667  0.618467  0.5
  O0+  O44  1  0.166267  0.927333  0.618467  0.5
  F0+  F45  1  0.166267  0.927333  0.618467  0.5
  O0+  O46  1  0.333733  0.927333  0.381533  0.5
  F0+  F47  1  0.333733  0.927333  0.381533  0.5
  O0+  O48  1  0.664967  0.430667  0.114800  0.5
  F0+  F49  1  0.664967  0.430667  0.114800  0.5
  O0+  O50  1  0.835033  0.430667  0.885200  0.5
  F0+  F51  1  0.835033  0.430667  0.885200  0.5
  O0+  O52  1  0.335033  0.569333  0.885200  0.5
  F0+  F53  1  0.335033  0.569333  0.885200  0.5
  O0+  O54  1  0.164967  0.569333  0.114800  0.5
  F0+  F55  1  0.164967  0.569333  0.114800  0.5
  O0+  O56  1  0.750000  0.548800  0.500000  0.5
  F0+  F57  1  0.750000  0.548800  0.500000  0.5
  O0+  O58  1  0.250000  0.451200  0.500000  0.5
  F0+  F59  1  0.250000  0.451200  0.500000  0.5
  O0+  O60  1  0.750000  0.955200  0.000000  0.5
  F0+  F61  1  0.750000  0.955200  0.000000  0.5
  O0+  O62  1  0.250000  0.044800  0.000000  0.5
  F0+  F63  1  0.250000  0.044800  0.000000  0.5
