# generated using pymatgen
data_Li2Ti3MnO8
_symmetry_space_group_name_H-M   'P 1'
_cell_length_a   25.06782667
_cell_length_b   25.08158333
_cell_length_c   8.33566667
_cell_angle_alpha   90.00000000
_cell_angle_beta   90.00000000
_cell_angle_gamma   90.00000000
_symmetry_Int_Tables_number   1
_chemical_formula_structural   Li2Ti3MnO8
_chemical_formula_sum   'Li72 Ti108 Mn36 O288'
_cell_volume   5240.97359121
_cell_formula_units_Z   36
loop_
 _symmetry_equiv_pos_site_id
 _symmetry_equiv_pos_as_xyz
  1  'x, y, z'
loop_
 _atom_type_symbol
 _atom_type_oxidation_number
  Li0+  0.0
  Ti0+  0.0
  Mn0+  0.0
  O0+  0.0
loop_
 _atom_site_type_symbol
 _atom_site_label
 _atom_site_symmetry_multiplicity
 _atom_site_fract_x
 _atom_site_fract_y
 _atom_site_fract_z
 _atom_site_occupancy
  Li0+  Li0  1  0.875000  0.875000  0.875000  1.0
  Li0+  Li1  1  0.125000  0.125000  0.125000  1.0
  Li0+  Li2  1  0.875000  0.375000  0.375000  1.0
  Li0+  Li3  1  0.125000  0.625000  0.625000  1.0
  Li0+  Li4  1  0.375000  0.875000  0.375000  1.0
  Li0+  Li5  1  0.625000  0.125000  0.625000  1.0
  Li0+  Li6  1  0.375000  0.375000  0.875000  1.0
  Li0+  Li7  1  0.625000  0.625000  0.125000  1.0
  Li0+  Li8  1  0.125000  0.959156  0.625000  1.0
  Li0+  Li9  1  0.125000  0.790844  0.125000  1.0
  Li0+  Li10  1  0.625000  0.959156  0.125000  1.0
  Li0+  Li11  1  0.625000  0.790844  0.625000  1.0
  Li0+  Li12  1  0.875000  0.040844  0.375000  1.0
  Li0+  Li13  1  0.875000  0.209156  0.875000  1.0
  Li0+  Li14  1  0.375000  0.040844  0.875000  1.0
  Li0+  Li15  1  0.375000  0.209156  0.375000  1.0
  Li0+  Li16  1  0.125000  0.459156  0.125000  1.0
  Li0+  Li17  1  0.125000  0.290844  0.625000  1.0
  Li0+  Li18  1  0.625000  0.459156  0.625000  1.0
  Li0+  Li19  1  0.625000  0.290844  0.125000  1.0
  Li0+  Li20  1  0.875000  0.540844  0.875000  1.0
  Li0+  Li21  1  0.875000  0.709156  0.375000  1.0
  Li0+  Li22  1  0.375000  0.540844  0.375000  1.0
  Li0+  Li23  1  0.375000  0.709156  0.875000  1.0
  Li0+  Li24  1  0.958289  0.125000  0.625000  1.0
  Li0+  Li25  1  0.958289  0.625000  0.125000  1.0
  Li0+  Li26  1  0.791711  0.125000  0.125000  1.0
  Li0+  Li27  1  0.791711  0.625000  0.625000  1.0
  Li0+  Li28  1  0.041711  0.875000  0.375000  1.0
  Li0+  Li29  1  0.041711  0.375000  0.875000  1.0
  Li0+  Li30  1  0.208289  0.875000  0.875000  1.0
  Li0+  Li31  1  0.208289  0.375000  0.375000  1.0
  Li0+  Li32  1  0.458289  0.125000  0.125000  1.0
  Li0+  Li33  1  0.458289  0.625000  0.625000  1.0
  Li0+  Li34  1  0.291711  0.125000  0.625000  1.0
  Li0+  Li35  1  0.291711  0.625000  0.125000  1.0
  Li0+  Li36  1  0.541711  0.875000  0.875000  1.0
  Li0+  Li37  1  0.541711  0.375000  0.375000  1.0
  Li0+  Li38  1  0.708289  0.875000  0.375000  1.0
  Li0+  Li39  1  0.708289  0.375000  0.875000  1.0
  Li0+  Li40  1  0.039644  0.042844  0.873333  1.0
  Li0+  Li41  1  0.039644  0.707156  0.876667  1.0
  Li0+  Li42  1  0.710356  0.042844  0.876667  1.0
  Li0+  Li43  1  0.710356  0.707156  0.873333  1.0
  Li0+  Li44  1  0.960356  0.957156  0.126667  1.0
  Li0+  Li45  1  0.960356  0.292844  0.123333  1.0
  Li0+  Li46  1  0.289644  0.957156  0.123333  1.0
  Li0+  Li47  1  0.289644  0.292844  0.126667  1.0
  Li0+  Li48  1  0.039644  0.542844  0.373333  1.0
  Li0+  Li49  1  0.039644  0.207156  0.376667  1.0
  Li0+  Li50  1  0.710356  0.542844  0.376667  1.0
  Li0+  Li51  1  0.710356  0.207156  0.373333  1.0
  Li0+  Li52  1  0.960356  0.457156  0.626667  1.0
  Li0+  Li53  1  0.960356  0.792844  0.623333  1.0
  Li0+  Li54  1  0.289644  0.457156  0.623333  1.0
  Li0+  Li55  1  0.289644  0.792844  0.626667  1.0
  Li0+  Li56  1  0.539644  0.042844  0.373333  1.0
  Li0+  Li57  1  0.539644  0.707156  0.376667  1.0
  Li0+  Li58  1  0.210356  0.042844  0.376667  1.0
  Li0+  Li59  1  0.210356  0.707156  0.373333  1.0
  Li0+  Li60  1  0.460356  0.957156  0.626667  1.0
  Li0+  Li61  1  0.460356  0.292844  0.623333  1.0
  Li0+  Li62  1  0.789644  0.957156  0.623333  1.0
  Li0+  Li63  1  0.789644  0.292844  0.626667  1.0
  Li0+  Li64  1  0.539644  0.542844  0.873333  1.0
  Li0+  Li65  1  0.539644  0.207156  0.876667  1.0
  Li0+  Li66  1  0.210356  0.542844  0.876667  1.0
  Li0+  Li67  1  0.210356  0.207156  0.873333  1.0
  Li0+  Li68  1  0.460356  0.457156  0.126667  1.0
  Li0+  Li69  1  0.460356  0.792844  0.123333  1.0
  Li0+  Li70  1  0.789644  0.457156  0.123333  1.0
  Li0+  Li71  1  0.789644  0.792844  0.126667  1.0
  Ti0+  Ti72  1  0.000000  0.000000  0.500000  0.75
  Mn0+  Mn73  1  0.000000  0.000000  0.500000  0.25
  Ti0+  Ti74  1  0.000000  0.750000  0.250000  0.75
  Mn0+  Mn75  1  0.000000  0.750000  0.250000  0.25
  Ti0+  Ti76  1  0.750000  0.000000  0.250000  0.75
  Mn0+  Mn77  1  0.750000  0.000000  0.250000  0.25
  Ti0+  Ti78  1  0.750000  0.750000  0.500000  0.75
  Mn0+  Mn79  1  0.750000  0.750000  0.500000  0.25
  Ti0+  Ti80  1  0.000000  0.250000  0.750000  0.75
  Mn0+  Mn81  1  0.000000  0.250000  0.750000  0.25
  Ti0+  Ti82  1  0.250000  0.000000  0.750000  0.75
  Mn0+  Mn83  1  0.250000  0.000000  0.750000  0.25
  Ti0+  Ti84  1  0.250000  0.250000  0.500000  0.75
  Mn0+  Mn85  1  0.250000  0.250000  0.500000  0.25
  Ti0+  Ti86  1  0.000000  0.500000  0.000000  0.75
  Mn0+  Mn87  1  0.000000  0.500000  0.000000  0.25
  Ti0+  Ti88  1  0.750000  0.500000  0.750000  0.75
  Mn0+  Mn89  1  0.750000  0.500000  0.750000  0.25
  Ti0+  Ti90  1  0.750000  0.250000  0.000000  0.75
  Mn0+  Mn91  1  0.750000  0.250000  0.000000  0.25
  Ti0+  Ti92  1  0.250000  0.500000  0.250000  0.75
  Mn0+  Mn93  1  0.250000  0.500000  0.250000  0.25
  Ti0+  Ti94  1  0.250000  0.750000  0.000000  0.75
  Mn0+  Mn95  1  0.250000  0.750000  0.000000  0.25
  Ti0+  Ti96  1  0.500000  0.000000  0.000000  0.75
  Mn0+  Mn97  1  0.500000  0.000000  0.000000  0.25
  Ti0+  Ti98  1  0.500000  0.750000  0.750000  0.75
  Mn0+  Mn99  1  0.500000  0.750000  0.750000  0.25
  Ti0+  Ti100  1  0.500000  0.250000  0.250000  0.75
  Mn0+  Mn101  1  0.500000  0.250000  0.250000  0.25
  Ti0+  Ti102  1  0.500000  0.500000  0.500000  0.75
  Mn0+  Mn103  1  0.500000  0.500000  0.500000  0.25
  Ti0+  Ti104  1  0.832722  0.834056  0.500833  0.75
  Mn0+  Mn105  1  0.832722  0.834056  0.500833  0.25
  Ti0+  Ti106  1  0.832722  0.915944  0.249167  0.75
  Mn0+  Mn107  1  0.832722  0.915944  0.249167  0.25
  Ti0+  Ti108  1  0.917278  0.834056  0.249167  0.75
  Mn0+  Mn109  1  0.917278  0.834056  0.249167  0.25
  Ti0+  Ti110  1  0.917278  0.915944  0.500833  0.75
  Mn0+  Mn111  1  0.917278  0.915944  0.500833  0.25
  Ti0+  Ti112  1  0.167278  0.165944  0.499167  0.75
  Mn0+  Mn113  1  0.167278  0.165944  0.499167  0.25
  Ti0+  Ti114  1  0.167278  0.084056  0.750833  0.75
  Mn0+  Mn115  1  0.167278  0.084056  0.750833  0.25
  Ti0+  Ti116  1  0.082722  0.165944  0.750833  0.75
  Mn0+  Mn117  1  0.082722  0.165944  0.750833  0.25
  Ti0+  Ti118  1  0.082722  0.084056  0.499167  0.75
  Mn0+  Mn119  1  0.082722  0.084056  0.499167  0.25
  Ti0+  Ti120  1  0.832722  0.334056  0.000833  0.75
  Mn0+  Mn121  1  0.832722  0.334056  0.000833  0.25
  Ti0+  Ti122  1  0.832722  0.415944  0.749167  0.75
  Mn0+  Mn123  1  0.832722  0.415944  0.749167  0.25
  Ti0+  Ti124  1  0.917278  0.334056  0.749167  0.75
  Mn0+  Mn125  1  0.917278  0.334056  0.749167  0.25
  Ti0+  Ti126  1  0.917278  0.415944  0.000833  0.75
  Mn0+  Mn127  1  0.917278  0.415944  0.000833  0.25
  Ti0+  Ti128  1  0.167278  0.665944  0.999167  0.75
  Mn0+  Mn129  1  0.167278  0.665944  0.999167  0.25
  Ti0+  Ti130  1  0.167278  0.584056  0.250833  0.75
  Mn0+  Mn131  1  0.167278  0.584056  0.250833  0.25
  Ti0+  Ti132  1  0.082722  0.665944  0.250833  0.75
  Mn0+  Mn133  1  0.082722  0.665944  0.250833  0.25
  Ti0+  Ti134  1  0.082722  0.584056  0.999167  0.75
  Mn0+  Mn135  1  0.082722  0.584056  0.999167  0.25
  Ti0+  Ti136  1  0.332722  0.834056  0.000833  0.75
  Mn0+  Mn137  1  0.332722  0.834056  0.000833  0.25
  Ti0+  Ti138  1  0.332722  0.915944  0.749167  0.75
  Mn0+  Mn139  1  0.332722  0.915944  0.749167  0.25
  Ti0+  Ti140  1  0.417278  0.834056  0.749167  0.75
  Mn0+  Mn141  1  0.417278  0.834056  0.749167  0.25
  Ti0+  Ti142  1  0.417278  0.915944  0.000833  0.75
  Mn0+  Mn143  1  0.417278  0.915944  0.000833  0.25
  Ti0+  Ti144  1  0.667278  0.165944  0.999167  0.75
  Mn0+  Mn145  1  0.667278  0.165944  0.999167  0.25
  Ti0+  Ti146  1  0.667278  0.084056  0.250833  0.75
  Mn0+  Mn147  1  0.667278  0.084056  0.250833  0.25
  Ti0+  Ti148  1  0.582722  0.165944  0.250833  0.75
  Mn0+  Mn149  1  0.582722  0.165944  0.250833  0.25
  Ti0+  Ti150  1  0.582722  0.084056  0.999167  0.75
  Mn0+  Mn151  1  0.582722  0.084056  0.999167  0.25
  Ti0+  Ti152  1  0.332722  0.334056  0.500833  0.75
  Mn0+  Mn153  1  0.332722  0.334056  0.500833  0.25
  Ti0+  Ti154  1  0.332722  0.415944  0.249167  0.75
  Mn0+  Mn155  1  0.332722  0.415944  0.249167  0.25
  Ti0+  Ti156  1  0.417278  0.334056  0.249167  0.75
  Mn0+  Mn157  1  0.417278  0.334056  0.249167  0.25
  Ti0+  Ti158  1  0.417278  0.415944  0.500833  0.75
  Mn0+  Mn159  1  0.417278  0.415944  0.500833  0.25
  Ti0+  Ti160  1  0.667278  0.665944  0.499167  0.75
  Mn0+  Mn161  1  0.667278  0.665944  0.499167  0.25
  Ti0+  Ti162  1  0.667278  0.584056  0.750833  0.75
  Mn0+  Mn163  1  0.667278  0.584056  0.750833  0.25
  Ti0+  Ti164  1  0.582722  0.665944  0.750833  0.75
  Mn0+  Mn165  1  0.582722  0.665944  0.750833  0.25
  Ti0+  Ti166  1  0.582722  0.584056  0.499167  0.75
  Mn0+  Mn167  1  0.582722  0.584056  0.499167  0.25
  Ti0+  Ti168  1  0.833856  0.082456  0.749267  0.75
  Mn0+  Mn169  1  0.833856  0.082456  0.749267  0.25
  Ti0+  Ti170  1  0.833856  0.667544  0.000733  0.75
  Mn0+  Mn171  1  0.833856  0.667544  0.000733  0.25
  Ti0+  Ti172  1  0.916144  0.082456  0.000733  0.75
  Mn0+  Mn173  1  0.916144  0.082456  0.000733  0.25
  Ti0+  Ti174  1  0.916144  0.667544  0.749267  0.75
  Mn0+  Mn175  1  0.916144  0.667544  0.749267  0.25
  Ti0+  Ti176  1  0.166144  0.917544  0.250733  0.75
  Mn0+  Mn177  1  0.166144  0.917544  0.250733  0.25
  Ti0+  Ti178  1  0.166144  0.332456  0.999267  0.75
  Mn0+  Mn179  1  0.166144  0.332456  0.999267  0.25
  Ti0+  Ti180  1  0.083856  0.917544  0.999267  0.75
  Mn0+  Mn181  1  0.083856  0.917544  0.999267  0.25
  Ti0+  Ti182  1  0.083856  0.332456  0.250733  0.75
  Mn0+  Mn183  1  0.083856  0.332456  0.250733  0.25
  Ti0+  Ti184  1  0.833856  0.582456  0.249267  0.75
  Mn0+  Mn185  1  0.833856  0.582456  0.249267  0.25
  Ti0+  Ti186  1  0.833856  0.167544  0.500733  0.75
  Mn0+  Mn187  1  0.833856  0.167544  0.500733  0.25
  Ti0+  Ti188  1  0.916144  0.582456  0.500733  0.75
  Mn0+  Mn189  1  0.916144  0.582456  0.500733  0.25
  Ti0+  Ti190  1  0.916144  0.167544  0.249267  0.75
  Mn0+  Mn191  1  0.916144  0.167544  0.249267  0.25
  Ti0+  Ti192  1  0.166144  0.417544  0.750733  0.75
  Mn0+  Mn193  1  0.166144  0.417544  0.750733  0.25
  Ti0+  Ti194  1  0.166144  0.832456  0.499267  0.75
  Mn0+  Mn195  1  0.166144  0.832456  0.499267  0.25
  Ti0+  Ti196  1  0.083856  0.417544  0.499267  0.75
  Mn0+  Mn197  1  0.083856  0.417544  0.499267  0.25
  Ti0+  Ti198  1  0.083856  0.832456  0.750733  0.75
  Mn0+  Mn199  1  0.083856  0.832456  0.750733  0.25
  Ti0+  Ti200  1  0.333856  0.082456  0.249267  0.75
  Mn0+  Mn201  1  0.333856  0.082456  0.249267  0.25
  Ti0+  Ti202  1  0.333856  0.667544  0.500733  0.75
  Mn0+  Mn203  1  0.333856  0.667544  0.500733  0.25
  Ti0+  Ti204  1  0.416144  0.082456  0.500733  0.75
  Mn0+  Mn205  1  0.416144  0.082456  0.500733  0.25
  Ti0+  Ti206  1  0.416144  0.667544  0.249267  0.75
  Mn0+  Mn207  1  0.416144  0.667544  0.249267  0.25
  Ti0+  Ti208  1  0.666144  0.917544  0.750733  0.75
  Mn0+  Mn209  1  0.666144  0.917544  0.750733  0.25
  Ti0+  Ti210  1  0.666144  0.332456  0.499267  0.75
  Mn0+  Mn211  1  0.666144  0.332456  0.499267  0.25
  Ti0+  Ti212  1  0.583856  0.917544  0.499267  0.75
  Mn0+  Mn213  1  0.583856  0.917544  0.499267  0.25
  Ti0+  Ti214  1  0.583856  0.332456  0.750733  0.75
  Mn0+  Mn215  1  0.583856  0.332456  0.750733  0.25
  Ti0+  Ti216  1  0.333856  0.582456  0.749267  0.75
  Mn0+  Mn217  1  0.333856  0.582456  0.749267  0.25
  Ti0+  Ti218  1  0.333856  0.167544  0.000733  0.75
  Mn0+  Mn219  1  0.333856  0.167544  0.000733  0.25
  Ti0+  Ti220  1  0.416144  0.582456  0.000733  0.75
  Mn0+  Mn221  1  0.416144  0.582456  0.000733  0.25
  Ti0+  Ti222  1  0.416144  0.167544  0.749267  0.75
  Mn0+  Mn223  1  0.416144  0.167544  0.749267  0.25
  Ti0+  Ti224  1  0.666144  0.417544  0.250733  0.75
  Mn0+  Mn225  1  0.666144  0.417544  0.250733  0.25
  Ti0+  Ti226  1  0.666144  0.832456  0.999267  0.75
  Mn0+  Mn227  1  0.666144  0.832456  0.999267  0.25
  Ti0+  Ti228  1  0.583856  0.417544  0.999267  0.75
  Mn0+  Mn229  1  0.583856  0.417544  0.999267  0.25
  Ti0+  Ti230  1  0.583856  0.832456  0.250733  0.75
  Mn0+  Mn231  1  0.583856  0.832456  0.250733  0.25
  Ti0+  Ti232  1  0.000913  0.916964  0.752100  0.75
  Mn0+  Mn233  1  0.000913  0.916964  0.752100  0.25
  Ti0+  Ti234  1  0.000913  0.833036  0.997900  0.75
  Mn0+  Mn235  1  0.000913  0.833036  0.997900  0.25
  Ti0+  Ti236  1  0.749087  0.916964  0.997900  0.75
  Mn0+  Mn237  1  0.749087  0.916964  0.997900  0.25
  Ti0+  Ti238  1  0.749087  0.833036  0.752100  0.75
  Mn0+  Mn239  1  0.749087  0.833036  0.752100  0.25
  Ti0+  Ti240  1  0.999087  0.083036  0.247900  0.75
  Mn0+  Mn241  1  0.999087  0.083036  0.247900  0.25
  Ti0+  Ti242  1  0.999087  0.166964  0.002100  0.75
  Mn0+  Mn243  1  0.999087  0.166964  0.002100  0.25
  Ti0+  Ti244  1  0.250913  0.083036  0.002100  0.75
  Mn0+  Mn245  1  0.250913  0.083036  0.002100  0.25
  Ti0+  Ti246  1  0.250913  0.166964  0.247900  0.75
  Mn0+  Mn247  1  0.250913  0.166964  0.247900  0.25
  Ti0+  Ti248  1  0.000913  0.416964  0.252100  0.75
  Mn0+  Mn249  1  0.000913  0.416964  0.252100  0.25
  Ti0+  Ti250  1  0.000913  0.333036  0.497900  0.75
  Mn0+  Mn251  1  0.000913  0.333036  0.497900  0.25
  Ti0+  Ti252  1  0.749087  0.416964  0.497900  0.75
  Mn0+  Mn253  1  0.749087  0.416964  0.497900  0.25
  Ti0+  Ti254  1  0.749087  0.333036  0.252100  0.75
  Mn0+  Mn255  1  0.749087  0.333036  0.252100  0.25
  Ti0+  Ti256  1  0.999087  0.583036  0.747900  0.75
  Mn0+  Mn257  1  0.999087  0.583036  0.747900  0.25
  Ti0+  Ti258  1  0.999087  0.666964  0.502100  0.75
  Mn0+  Mn259  1  0.999087  0.666964  0.502100  0.25
  Ti0+  Ti260  1  0.250913  0.583036  0.502100  0.75
  Mn0+  Mn261  1  0.250913  0.583036  0.502100  0.25
  Ti0+  Ti262  1  0.250913  0.666964  0.747900  0.75
  Mn0+  Mn263  1  0.250913  0.666964  0.747900  0.25
  Ti0+  Ti264  1  0.500913  0.916964  0.252100  0.75
  Mn0+  Mn265  1  0.500913  0.916964  0.252100  0.25
  Ti0+  Ti266  1  0.500913  0.833036  0.497900  0.75
  Mn0+  Mn267  1  0.500913  0.833036  0.497900  0.25
  Ti0+  Ti268  1  0.249087  0.916964  0.497900  0.75
  Mn0+  Mn269  1  0.249087  0.916964  0.497900  0.25
  Ti0+  Ti270  1  0.249087  0.833036  0.252100  0.75
  Mn0+  Mn271  1  0.249087  0.833036  0.252100  0.25
  Ti0+  Ti272  1  0.499087  0.083036  0.747900  0.75
  Mn0+  Mn273  1  0.499087  0.083036  0.747900  0.25
  Ti0+  Ti274  1  0.499087  0.166964  0.502100  0.75
  Mn0+  Mn275  1  0.499087  0.166964  0.502100  0.25
  Ti0+  Ti276  1  0.750913  0.083036  0.502100  0.75
  Mn0+  Mn277  1  0.750913  0.083036  0.502100  0.25
  Ti0+  Ti278  1  0.750913  0.166964  0.747900  0.75
  Mn0+  Mn279  1  0.750913  0.166964  0.747900  0.25
  Ti0+  Ti280  1  0.500913  0.416964  0.752100  0.75
  Mn0+  Mn281  1  0.500913  0.416964  0.752100  0.25
  Ti0+  Ti282  1  0.500913  0.333036  0.997900  0.75
  Mn0+  Mn283  1  0.500913  0.333036  0.997900  0.25
  Ti0+  Ti284  1  0.249087  0.416964  0.997900  0.75
  Mn0+  Mn285  1  0.249087  0.416964  0.997900  0.25
  Ti0+  Ti286  1  0.249087  0.333036  0.752100  0.75
  Mn0+  Mn287  1  0.249087  0.333036  0.752100  0.25
  Ti0+  Ti288  1  0.499087  0.583036  0.247900  0.75
  Mn0+  Mn289  1  0.499087  0.583036  0.247900  0.25
  Ti0+  Ti290  1  0.499087  0.666964  0.002100  0.75
  Mn0+  Mn291  1  0.499087  0.666964  0.002100  0.25
  Ti0+  Ti292  1  0.750913  0.583036  0.002100  0.75
  Mn0+  Mn293  1  0.750913  0.583036  0.002100  0.25
  Ti0+  Ti294  1  0.750913  0.666964  0.247900  0.75
  Mn0+  Mn295  1  0.750913  0.666964  0.247900  0.25
  Ti0+  Ti296  1  0.916518  0.998280  0.750933  0.75
  Mn0+  Mn297  1  0.916518  0.998280  0.750933  0.25
  Ti0+  Ti298  1  0.916518  0.751720  0.999067  0.75
  Mn0+  Mn299  1  0.916518  0.751720  0.999067  0.25
  Ti0+  Ti300  1  0.833482  0.998280  0.999067  0.75
  Mn0+  Mn301  1  0.833482  0.998280  0.999067  0.25
  Ti0+  Ti302  1  0.833482  0.751720  0.750933  0.75
  Mn0+  Mn303  1  0.833482  0.751720  0.750933  0.25
  Ti0+  Ti304  1  0.083482  0.001720  0.249067  0.75
  Mn0+  Mn305  1  0.083482  0.001720  0.249067  0.25
  Ti0+  Ti306  1  0.083482  0.248280  0.000933  0.75
  Mn0+  Mn307  1  0.083482  0.248280  0.000933  0.25
  Ti0+  Ti308  1  0.166518  0.001720  0.000933  0.75
  Mn0+  Mn309  1  0.166518  0.001720  0.000933  0.25
  Ti0+  Ti310  1  0.166518  0.248280  0.249067  0.75
  Mn0+  Mn311  1  0.166518  0.248280  0.249067  0.25
  Ti0+  Ti312  1  0.916518  0.498280  0.250933  0.75
  Mn0+  Mn313  1  0.916518  0.498280  0.250933  0.25
  Ti0+  Ti314  1  0.916518  0.251720  0.499067  0.75
  Mn0+  Mn315  1  0.916518  0.251720  0.499067  0.25
  Ti0+  Ti316  1  0.833482  0.498280  0.499067  0.75
  Mn0+  Mn317  1  0.833482  0.498280  0.499067  0.25
  Ti0+  Ti318  1  0.833482  0.251720  0.250933  0.75
  Mn0+  Mn319  1  0.833482  0.251720  0.250933  0.25
  Ti0+  Ti320  1  0.083482  0.501720  0.749067  0.75
  Mn0+  Mn321  1  0.083482  0.501720  0.749067  0.25
  Ti0+  Ti322  1  0.083482  0.748280  0.500933  0.75
  Mn0+  Mn323  1  0.083482  0.748280  0.500933  0.25
  Ti0+  Ti324  1  0.166518  0.501720  0.500933  0.75
  Mn0+  Mn325  1  0.166518  0.501720  0.500933  0.25
  Ti0+  Ti326  1  0.166518  0.748280  0.749067  0.75
  Mn0+  Mn327  1  0.166518  0.748280  0.749067  0.25
  Ti0+  Ti328  1  0.416518  0.998280  0.250933  0.75
  Mn0+  Mn329  1  0.416518  0.998280  0.250933  0.25
  Ti0+  Ti330  1  0.416518  0.751720  0.499067  0.75
  Mn0+  Mn331  1  0.416518  0.751720  0.499067  0.25
  Ti0+  Ti332  1  0.333482  0.998280  0.499067  0.75
  Mn0+  Mn333  1  0.333482  0.998280  0.499067  0.25
  Ti0+  Ti334  1  0.333482  0.751720  0.250933  0.75
  Mn0+  Mn335  1  0.333482  0.751720  0.250933  0.25
  Ti0+  Ti336  1  0.583482  0.001720  0.749067  0.75
  Mn0+  Mn337  1  0.583482  0.001720  0.749067  0.25
  Ti0+  Ti338  1  0.583482  0.248280  0.500933  0.75
  Mn0+  Mn339  1  0.583482  0.248280  0.500933  0.25
  Ti0+  Ti340  1  0.666518  0.001720  0.500933  0.75
  Mn0+  Mn341  1  0.666518  0.001720  0.500933  0.25
  Ti0+  Ti342  1  0.666518  0.248280  0.749067  0.75
  Mn0+  Mn343  1  0.666518  0.248280  0.749067  0.25
  Ti0+  Ti344  1  0.416518  0.498280  0.750933  0.75
  Mn0+  Mn345  1  0.416518  0.498280  0.750933  0.25
  Ti0+  Ti346  1  0.416518  0.251720  0.999067  0.75
  Mn0+  Mn347  1  0.416518  0.251720  0.999067  0.25
  Ti0+  Ti348  1  0.333482  0.498280  0.999067  0.75
  Mn0+  Mn349  1  0.333482  0.498280  0.999067  0.25
  Ti0+  Ti350  1  0.333482  0.251720  0.750933  0.75
  Mn0+  Mn351  1  0.333482  0.251720  0.750933  0.25
  Ti0+  Ti352  1  0.583482  0.501720  0.249067  0.75
  Mn0+  Mn353  1  0.583482  0.501720  0.249067  0.25
  Ti0+  Ti354  1  0.583482  0.748280  0.000933  0.75
  Mn0+  Mn355  1  0.583482  0.748280  0.000933  0.25
  Ti0+  Ti356  1  0.666518  0.501720  0.000933  0.75
  Mn0+  Mn357  1  0.666518  0.501720  0.000933  0.25
  Ti0+  Ti358  1  0.666518  0.748280  0.249067  0.75
  Mn0+  Mn359  1  0.666518  0.748280  0.249067  0.25
  O0+  O360  1  0.922156  0.920189  0.738800  1.0
  O0+  O361  1  0.922156  0.829811  0.011200  1.0
  O0+  O362  1  0.827844  0.920189  0.011200  1.0
  O0+  O363  1  0.827844  0.829811  0.738800  1.0
  O0+  O364  1  0.077844  0.079811  0.261200  1.0
  O0+  O365  1  0.077844  0.170189  0.988800  1.0
  O0+  O366  1  0.172156  0.079811  0.988800  1.0
  O0+  O367  1  0.172156  0.170189  0.261200  1.0
  O0+  O368  1  0.922156  0.420189  0.238800  1.0
  O0+  O369  1  0.922156  0.329811  0.511200  1.0
  O0+  O370  1  0.827844  0.420189  0.511200  1.0
  O0+  O371  1  0.827844  0.329811  0.238800  1.0
  O0+  O372  1  0.077844  0.579811  0.761200  1.0
  O0+  O373  1  0.077844  0.670189  0.488800  1.0
  O0+  O374  1  0.172156  0.579811  0.488800  1.0
  O0+  O375  1  0.172156  0.670189  0.761200  1.0
  O0+  O376  1  0.422156  0.920189  0.238800  1.0
  O0+  O377  1  0.422156  0.829811  0.511200  1.0
  O0+  O378  1  0.327844  0.920189  0.511200  1.0
  O0+  O379  1  0.327844  0.829811  0.238800  1.0
  O0+  O380  1  0.577844  0.079811  0.761200  1.0
  O0+  O381  1  0.577844  0.170189  0.488800  1.0
  O0+  O382  1  0.672156  0.079811  0.488800  1.0
  O0+  O383  1  0.672156  0.170189  0.761200  1.0
  O0+  O384  1  0.422156  0.420189  0.738800  1.0
  O0+  O385  1  0.422156  0.329811  0.011200  1.0
  O0+  O386  1  0.327844  0.420189  0.011200  1.0
  O0+  O387  1  0.327844  0.329811  0.738800  1.0
  O0+  O388  1  0.577844  0.579811  0.261200  1.0
  O0+  O389  1  0.577844  0.670189  0.988800  1.0
  O0+  O390  1  0.672156  0.579811  0.988800  1.0
  O0+  O391  1  0.672156  0.670189  0.261200  1.0
  O0+  O392  1  0.828078  0.755911  0.508867  1.0
  O0+  O393  1  0.828078  0.994089  0.241133  1.0
  O0+  O394  1  0.921922  0.755911  0.241133  1.0
  O0+  O395  1  0.921922  0.994089  0.508867  1.0
  O0+  O396  1  0.171922  0.244089  0.491133  1.0
  O0+  O397  1  0.171922  0.005911  0.758867  1.0
  O0+  O398  1  0.078078  0.244089  0.758867  1.0
  O0+  O399  1  0.078078  0.005911  0.491133  1.0
  O0+  O400  1  0.828078  0.255911  0.008867  1.0
  O0+  O401  1  0.828078  0.494089  0.741133  1.0
  O0+  O402  1  0.921922  0.255911  0.741133  1.0
  O0+  O403  1  0.921922  0.494089  0.008867  1.0
  O0+  O404  1  0.171922  0.744089  0.991133  1.0
  O0+  O405  1  0.171922  0.505911  0.258867  1.0
  O0+  O406  1  0.078078  0.744089  0.258867  1.0
  O0+  O407  1  0.078078  0.505911  0.991133  1.0
  O0+  O408  1  0.328078  0.755911  0.008867  1.0
  O0+  O409  1  0.328078  0.994089  0.741133  1.0
  O0+  O410  1  0.421922  0.755911  0.741133  1.0
  O0+  O411  1  0.421922  0.994089  0.008867  1.0
  O0+  O412  1  0.671922  0.244089  0.991133  1.0
  O0+  O413  1  0.671922  0.005911  0.258867  1.0
  O0+  O414  1  0.578078  0.244089  0.258867  1.0
  O0+  O415  1  0.578078  0.005911  0.991133  1.0
  O0+  O416  1  0.328078  0.255911  0.508867  1.0
  O0+  O417  1  0.328078  0.494089  0.241133  1.0
  O0+  O418  1  0.421922  0.255911  0.241133  1.0
  O0+  O419  1  0.421922  0.494089  0.508867  1.0
  O0+  O420  1  0.671922  0.744089  0.491133  1.0
  O0+  O421  1  0.671922  0.505911  0.758867  1.0
  O0+  O422  1  0.578078  0.744089  0.758867  1.0
  O0+  O423  1  0.578078  0.505911  0.491133  1.0
  O0+  O424  1  0.828778  0.085100  0.512867  1.0
  O0+  O425  1  0.828778  0.664900  0.237133  1.0
  O0+  O426  1  0.921222  0.085100  0.237133  1.0
  O0+  O427  1  0.921222  0.664900  0.512867  1.0
  O0+  O428  1  0.171222  0.914900  0.487133  1.0
  O0+  O429  1  0.171222  0.335100  0.762867  1.0
  O0+  O430  1  0.078778  0.914900  0.762867  1.0
  O0+  O431  1  0.078778  0.335100  0.487133  1.0
  O0+  O432  1  0.828778  0.585100  0.012867  1.0
  O0+  O433  1  0.828778  0.164900  0.737133  1.0
  O0+  O434  1  0.921222  0.585100  0.737133  1.0
  O0+  O435  1  0.921222  0.164900  0.012867  1.0
  O0+  O436  1  0.171222  0.414900  0.987133  1.0
  O0+  O437  1  0.171222  0.835100  0.262867  1.0
  O0+  O438  1  0.078778  0.414900  0.262867  1.0
  O0+  O439  1  0.078778  0.835100  0.987133  1.0
  O0+  O440  1  0.328778  0.085100  0.012867  1.0
  O0+  O441  1  0.328778  0.664900  0.737133  1.0
  O0+  O442  1  0.421222  0.085100  0.737133  1.0
  O0+  O443  1  0.421222  0.664900  0.012867  1.0
  O0+  O444  1  0.671222  0.914900  0.987133  1.0
  O0+  O445  1  0.671222  0.335100  0.262867  1.0
  O0+  O446  1  0.578778  0.914900  0.262867  1.0
  O0+  O447  1  0.578778  0.335100  0.987133  1.0
  O0+  O448  1  0.328778  0.585100  0.512867  1.0
  O0+  O449  1  0.328778  0.164900  0.237133  1.0
  O0+  O450  1  0.421222  0.585100  0.237133  1.0
  O0+  O451  1  0.421222  0.164900  0.512867  1.0
  O0+  O452  1  0.671222  0.414900  0.487133  1.0
  O0+  O453  1  0.671222  0.835100  0.762867  1.0
  O0+  O454  1  0.578778  0.414900  0.762867  1.0
  O0+  O455  1  0.578778  0.835100  0.487133  1.0
  O0+  O456  1  -0.001011  0.921722  0.518533  1.0
  O0+  O457  1  -0.001011  0.828278  0.231467  1.0
  O0+  O458  1  0.751011  0.921722  0.231467  1.0
  O0+  O459  1  0.751011  0.828278  0.518533  1.0
  O0+  O460  1  1.001011  0.078278  0.481467  1.0
  O0+  O461  1  1.001011  0.171722  0.768533  1.0
  O0+  O462  1  0.248989  0.078278  0.768533  1.0
  O0+  O463  1  0.248989  0.171722  0.481467  1.0
  O0+  O464  1  -0.001011  0.421722  0.018533  1.0
  O0+  O465  1  -0.001011  0.328278  0.731467  1.0
  O0+  O466  1  0.751011  0.421722  0.731467  1.0
  O0+  O467  1  0.751011  0.328278  0.018533  1.0
  O0+  O468  1  1.001011  0.578278  0.981467  1.0
  O0+  O469  1  1.001011  0.671722  0.268533  1.0
  O0+  O470  1  0.248989  0.578278  0.268533  1.0
  O0+  O471  1  0.248989  0.671722  0.981467  1.0
  O0+  O472  1  0.498989  0.921722  0.018533  1.0
  O0+  O473  1  0.498989  0.828278  0.731467  1.0
  O0+  O474  1  0.251011  0.921722  0.731467  1.0
  O0+  O475  1  0.251011  0.828278  0.018533  1.0
  O0+  O476  1  0.501011  0.078278  0.981467  1.0
  O0+  O477  1  0.501011  0.171722  0.268533  1.0
  O0+  O478  1  0.748989  0.078278  0.268533  1.0
  O0+  O479  1  0.748989  0.171722  0.981467  1.0
  O0+  O480  1  0.498989  0.421722  0.518533  1.0
  O0+  O481  1  0.498989  0.328278  0.231467  1.0
  O0+  O482  1  0.251011  0.421722  0.231467  1.0
  O0+  O483  1  0.251011  0.328278  0.518533  1.0
  O0+  O484  1  0.501011  0.578278  0.481467  1.0
  O0+  O485  1  0.501011  0.671722  0.768533  1.0
  O0+  O486  1  0.748989  0.578278  0.768533  1.0
  O0+  O487  1  0.748989  0.671722  0.481467  1.0
  O0+  O488  1  0.754578  0.755378  0.742467  1.0
  O0+  O489  1  0.754578  0.994622  1.007533  1.0
  O0+  O490  1  0.995422  0.755378  1.007533  1.0
  O0+  O491  1  0.995422  0.994622  0.742467  1.0
  O0+  O492  1  0.245422  0.244622  0.257533  1.0
  O0+  O493  1  0.245422  0.005378  -0.007533  1.0
  O0+  O494  1  0.004578  0.244622  -0.007533  1.0
  O0+  O495  1  0.004578  0.005378  0.257533  1.0
  O0+  O496  1  0.754578  0.255378  0.242467  1.0
  O0+  O497  1  0.754578  0.494622  0.507533  1.0
  O0+  O498  1  0.995422  0.255378  0.507533  1.0
  O0+  O499  1  0.995422  0.494622  0.242467  1.0
  O0+  O500  1  0.245422  0.744622  0.757533  1.0
  O0+  O501  1  0.245422  0.505378  0.492467  1.0
  O0+  O502  1  0.004578  0.744622  0.492467  1.0
  O0+  O503  1  0.004578  0.505378  0.757533  1.0
  O0+  O504  1  0.254578  0.755378  0.242467  1.0
  O0+  O505  1  0.254578  0.994622  0.507533  1.0
  O0+  O506  1  0.495422  0.755378  0.507533  1.0
  O0+  O507  1  0.495422  0.994622  0.242467  1.0
  O0+  O508  1  0.745422  0.244622  0.757533  1.0
  O0+  O509  1  0.745422  0.005378  0.492467  1.0
  O0+  O510  1  0.504578  0.244622  0.492467  1.0
  O0+  O511  1  0.504578  0.005378  0.757533  1.0
  O0+  O512  1  0.254578  0.255378  0.742467  1.0
  O0+  O513  1  0.254578  0.494622  1.007533  1.0
  O0+  O514  1  0.495422  0.255378  1.007533  1.0
  O0+  O515  1  0.495422  0.494622  0.742467  1.0
  O0+  O516  1  0.745422  0.744622  0.257533  1.0
  O0+  O517  1  0.745422  0.505378  -0.007533  1.0
  O0+  O518  1  0.504578  0.744622  -0.007533  1.0
  O0+  O519  1  0.504578  0.505378  0.257533  1.0
  O0+  O520  1  0.004278  0.838333  0.763533  1.0
  O0+  O521  1  0.004278  0.911667  0.986467  1.0
  O0+  O522  1  0.745722  0.838333  0.986467  1.0
  O0+  O523  1  0.745722  0.911667  0.763533  1.0
  O0+  O524  1  0.995722  0.161667  0.236467  1.0
  O0+  O525  1  0.995722  0.088333  0.013533  1.0
  O0+  O526  1  0.254278  0.161667  0.013533  1.0
  O0+  O527  1  0.254278  0.088333  0.236467  1.0
  O0+  O528  1  0.004278  0.338333  0.263533  1.0
  O0+  O529  1  0.004278  0.411667  0.486467  1.0
  O0+  O530  1  0.745722  0.338333  0.486467  1.0
  O0+  O531  1  0.745722  0.411667  0.263533  1.0
  O0+  O532  1  0.995722  0.661667  0.736467  1.0
  O0+  O533  1  0.995722  0.588333  0.513533  1.0
  O0+  O534  1  0.254278  0.661667  0.513533  1.0
  O0+  O535  1  0.254278  0.588333  0.736467  1.0
  O0+  O536  1  0.504278  0.838333  0.263533  1.0
  O0+  O537  1  0.504278  0.911667  0.486467  1.0
  O0+  O538  1  0.245722  0.838333  0.486467  1.0
  O0+  O539  1  0.245722  0.911667  0.263533  1.0
  O0+  O540  1  0.495722  0.161667  0.736467  1.0
  O0+  O541  1  0.495722  0.088333  0.513533  1.0
  O0+  O542  1  0.754278  0.161667  0.513533  1.0
  O0+  O543  1  0.754278  0.088333  0.736467  1.0
  O0+  O544  1  0.504278  0.338333  0.763533  1.0
  O0+  O545  1  0.504278  0.411667  0.986467  1.0
  O0+  O546  1  0.245722  0.338333  0.986467  1.0
  O0+  O547  1  0.245722  0.411667  0.763533  1.0
  O0+  O548  1  0.495722  0.661667  0.236467  1.0
  O0+  O549  1  0.495722  0.588333  0.013533  1.0
  O0+  O550  1  0.754278  0.661667  0.013533  1.0
  O0+  O551  1  0.754278  0.588333  0.236467  1.0
  O0+  O552  1  0.912867  0.077178  0.763200  1.0
  O0+  O553  1  0.912867  0.672822  0.986800  1.0
  O0+  O554  1  0.837133  0.077178  0.986800  1.0
  O0+  O555  1  0.837133  0.672822  0.763200  1.0
  O0+  O556  1  0.087133  0.922822  0.236800  1.0
  O0+  O557  1  0.087133  0.327178  0.013200  1.0
  O0+  O558  1  0.162867  0.922822  0.013200  1.0
  O0+  O559  1  0.162867  0.327178  0.236800  1.0
  O0+  O560  1  0.912867  0.577178  0.263200  1.0
  O0+  O561  1  0.912867  0.172822  0.486800  1.0
  O0+  O562  1  0.837133  0.577178  0.486800  1.0
  O0+  O563  1  0.837133  0.172822  0.263200  1.0
  O0+  O564  1  0.087133  0.422822  0.736800  1.0
  O0+  O565  1  0.087133  0.827178  0.513200  1.0
  O0+  O566  1  0.162867  0.422822  0.513200  1.0
  O0+  O567  1  0.162867  0.827178  0.736800  1.0
  O0+  O568  1  0.412867  0.077178  0.263200  1.0
  O0+  O569  1  0.412867  0.672822  0.486800  1.0
  O0+  O570  1  0.337133  0.077178  0.486800  1.0
  O0+  O571  1  0.337133  0.672822  0.263200  1.0
  O0+  O572  1  0.587133  0.922822  0.736800  1.0
  O0+  O573  1  0.587133  0.327178  0.513200  1.0
  O0+  O574  1  0.662867  0.922822  0.513200  1.0
  O0+  O575  1  0.662867  0.327178  0.736800  1.0
  O0+  O576  1  0.412867  0.577178  0.763200  1.0
  O0+  O577  1  0.412867  0.172822  0.986800  1.0
  O0+  O578  1  0.337133  0.577178  0.986800  1.0
  O0+  O579  1  0.337133  0.172822  0.763200  1.0
  O0+  O580  1  0.587133  0.422822  0.236800  1.0
  O0+  O581  1  0.587133  0.827178  0.013200  1.0
  O0+  O582  1  0.662867  0.422822  0.013200  1.0
  O0+  O583  1  0.662867  0.827178  0.236800  1.0
  O0+  O584  1  0.838733  1.001178  0.765200  1.0
  O0+  O585  1  0.838733  0.748822  0.984800  1.0
  O0+  O586  1  0.911267  1.001178  0.984800  1.0
  O0+  O587  1  0.911267  0.748822  0.765200  1.0
  O0+  O588  1  0.161267  -0.001178  0.234800  1.0
  O0+  O589  1  0.161267  0.251178  0.015200  1.0
  O0+  O590  1  0.088733  -0.001178  0.015200  1.0
  O0+  O591  1  0.088733  0.251178  0.234800  1.0
  O0+  O592  1  0.838733  0.501178  0.265200  1.0
  O0+  O593  1  0.838733  0.248822  0.484800  1.0
  O0+  O594  1  0.911267  0.501178  0.484800  1.0
  O0+  O595  1  0.911267  0.248822  0.265200  1.0
  O0+  O596  1  0.161267  0.498822  0.734800  1.0
  O0+  O597  1  0.161267  0.751178  0.515200  1.0
  O0+  O598  1  0.088733  0.498822  0.515200  1.0
  O0+  O599  1  0.088733  0.751178  0.734800  1.0
  O0+  O600  1  0.338733  1.001178  0.265200  1.0
  O0+  O601  1  0.338733  0.748822  0.484800  1.0
  O0+  O602  1  0.411267  1.001178  0.484800  1.0
  O0+  O603  1  0.411267  0.748822  0.265200  1.0
  O0+  O604  1  0.661267  -0.001178  0.734800  1.0
  O0+  O605  1  0.661267  0.251178  0.515200  1.0
  O0+  O606  1  0.588733  -0.001178  0.515200  1.0
  O0+  O607  1  0.588733  0.251178  0.734800  1.0
  O0+  O608  1  0.338733  0.501178  0.765200  1.0
  O0+  O609  1  0.338733  0.248822  0.984800  1.0
  O0+  O610  1  0.411267  0.501178  0.984800  1.0
  O0+  O611  1  0.411267  0.248822  0.765200  1.0
  O0+  O612  1  0.661267  0.498822  0.234800  1.0
  O0+  O613  1  0.661267  0.751178  0.015200  1.0
  O0+  O614  1  0.588733  0.498822  0.015200  1.0
  O0+  O615  1  0.588733  0.751178  0.234800  1.0
  O0+  O616  1  0.836933  0.912233  0.484133  1.0
  O0+  O617  1  0.836933  0.837767  0.265867  1.0
  O0+  O618  1  0.913067  0.912233  0.265867  1.0
  O0+  O619  1  0.913067  0.837767  0.484133  1.0
  O0+  O620  1  0.163067  0.087767  0.515867  1.0
  O0+  O621  1  0.163067  0.162233  0.734133  1.0
  O0+  O622  1  0.086933  0.087767  0.734133  1.0
  O0+  O623  1  0.086933  0.162233  0.515867  1.0
  O0+  O624  1  0.836933  0.412233  0.984133  1.0
  O0+  O625  1  0.836933  0.337767  0.765867  1.0
  O0+  O626  1  0.913067  0.412233  0.765867  1.0
  O0+  O627  1  0.913067  0.337767  0.984133  1.0
  O0+  O628  1  0.163067  0.587767  0.015867  1.0
  O0+  O629  1  0.163067  0.662233  0.234133  1.0
  O0+  O630  1  0.086933  0.587767  0.234133  1.0
  O0+  O631  1  0.086933  0.662233  0.015867  1.0
  O0+  O632  1  0.336933  0.912233  0.984133  1.0
  O0+  O633  1  0.336933  0.837767  0.765867  1.0
  O0+  O634  1  0.413067  0.912233  0.765867  1.0
  O0+  O635  1  0.413067  0.837767  0.984133  1.0
  O0+  O636  1  0.663067  0.087767  0.015867  1.0
  O0+  O637  1  0.663067  0.162233  0.234133  1.0
  O0+  O638  1  0.586933  0.087767  0.234133  1.0
  O0+  O639  1  0.586933  0.162233  0.015867  1.0
  O0+  O640  1  0.336933  0.412233  0.484133  1.0
  O0+  O641  1  0.336933  0.337767  0.265867  1.0
  O0+  O642  1  0.413067  0.412233  0.265867  1.0
  O0+  O643  1  0.413067  0.337767  0.484133  1.0
  O0+  O644  1  0.663067  0.587767  0.515867  1.0
  O0+  O645  1  0.663067  0.662233  0.734133  1.0
  O0+  O646  1  0.586933  0.587767  0.734133  1.0
  O0+  O647  1  0.586933  0.662233  0.515867  1.0
