# generated using pymatgen
data_Li2Ti9Mn(O3F)5
_symmetry_space_group_name_H-M   'P 1'
_cell_length_a   9.96200204
_cell_length_b   5.02293333
_cell_length_c   7.27680629
_cell_angle_alpha   90.00000000
_cell_angle_beta   110.00897295
_cell_angle_gamma   90.00000000
_symmetry_Int_Tables_number   1
_chemical_formula_structural   Li2Ti9Mn(O3F)5
_chemical_formula_sum   'Li2 Ti9 Mn1 O15 F5'
_cell_volume   342.14162219
_cell_formula_units_Z   1
loop_
 _symmetry_equiv_pos_site_id
 _symmetry_equiv_pos_as_xyz
  1  'x, y, z'
loop_
 _atom_type_symbol
 _atom_type_oxidation_number
  Li0+  0.0
  Ti0+  0.0
  Mn0+  0.0
  O0+  0.0
  F0+  0.0
loop_
 _atom_site_type_symbol
 _atom_site_label
 _atom_site_symmetry_multiplicity
 _atom_site_fract_x
 _atom_site_fract_y
 _atom_site_fract_z
 _atom_site_occupancy
  Li0+  Li0  1  0.881833  0.245600  0.153733  0.25
  Ti0+  Ti1  1  0.881833  0.245600  0.153733  0.75
  Li0+  Li2  1  0.618167  0.245600  0.846267  0.25
  Ti0+  Ti3  1  0.618167  0.245600  0.846267  0.75
  Li0+  Li4  1  0.118167  0.754400  0.846267  0.25
  Ti0+  Ti5  1  0.118167  0.754400  0.846267  0.75
  Li0+  Li6  1  0.381833  0.754400  0.153733  0.25
  Ti0+  Ti7  1  0.381833  0.754400  0.153733  0.75
  Li0+  Li8  1  0.616233  0.264800  0.346267  0.25
  Ti0+  Ti9  1  0.616233  0.264800  0.346267  0.75
  Li0+  Li10  1  0.883767  0.264800  0.653733  0.25
  Ti0+  Ti11  1  0.883767  0.264800  0.653733  0.75
  Li0+  Li12  1  0.383767  0.735200  0.653733  0.25
  Ti0+  Ti13  1  0.383767  0.735200  0.653733  0.75
  Li0+  Li14  1  0.116233  0.735200  0.346267  0.25
  Ti0+  Ti15  1  0.116233  0.735200  0.346267  0.75
  Ti0+  Ti16  1  0.747400  0.747733  0.248733  0.75
  Mn0+  Mn17  1  0.747400  0.747733  0.248733  0.25
  Ti0+  Ti18  1  0.752600  0.747733  0.751267  0.75
  Mn0+  Mn19  1  0.752600  0.747733  0.751267  0.25
  Ti0+  Ti20  1  0.252600  0.252267  0.751267  0.75
  Mn0+  Mn21  1  0.252600  0.252267  0.751267  0.25
  Ti0+  Ti22  1  0.247400  0.252267  0.248733  0.75
  Mn0+  Mn23  1  0.247400  0.252267  0.248733  0.25
  O0+  O24  1  0.933067  0.582133  0.281867  0.75
  F0+  F25  1  0.933067  0.582133  0.281867  0.25
  O0+  O26  1  0.566933  0.582133  0.718133  0.75
  F0+  F27  1  0.566933  0.582133  0.718133  0.25
  O0+  O28  1  0.066933  0.417867  0.718133  0.75
  F0+  F29  1  0.066933  0.417867  0.718133  0.25
  O0+  O30  1  0.433067  0.417867  0.281867  0.75
  F0+  F31  1  0.433067  0.417867  0.281867  0.25
  O0+  O32  1  0.563600  0.907200  0.216133  0.75
  F0+  F33  1  0.563600  0.907200  0.216133  0.25
  O0+  O34  1  0.936400  0.907200  0.783867  0.75
  F0+  F35  1  0.936400  0.907200  0.783867  0.25
  O0+  O36  1  0.436400  0.092800  0.783867  0.75
  F0+  F37  1  0.436400  0.092800  0.783867  0.25
  O0+  O38  1  0.063600  0.092800  0.216133  0.75
  F0+  F39  1  0.063600  0.092800  0.216133  0.25
  O0+  O40  1  0.830867  0.087833  0.382267  0.75
  F0+  F41  1  0.830867  0.087833  0.382267  0.25
  O0+  O42  1  0.669133  0.087833  0.617733  0.75
  F0+  F43  1  0.669133  0.087833  0.617733  0.25
  O0+  O44  1  0.169133  0.912167  0.617733  0.75
  F0+  F45  1  0.169133  0.912167  0.617733  0.25
  O0+  O46  1  0.330867  0.912167  0.382267  0.75
  F0+  F47  1  0.330867  0.912167  0.382267  0.25
  O0+  O48  1  0.666533  0.418833  0.110400  0.75
  F0+  F49  1  0.666533  0.418833  0.110400  0.25
  O0+  O50  1  0.833467  0.418833  0.889600  0.75
  F0+  F51  1  0.833467  0.418833  0.889600  0.25
  O0+  O52  1  0.333467  0.581167  0.889600  0.75
  F0+  F53  1  0.333467  0.581167  0.889600  0.25
  O0+  O54  1  0.166533  0.581167  0.110400  0.75
  F0+  F55  1  0.166533  0.581167  0.110400  0.25
  O0+  O56  1  0.750000  0.557400  0.500000  0.75
  F0+  F57  1  0.750000  0.557400  0.500000  0.25
  O0+  O58  1  0.250000  0.442600  0.500000  0.75
  F0+  F59  1  0.250000  0.442600  0.500000  0.25
  O0+  O60  1  0.750000  0.950600  0.000000  0.75
  F0+  F61  1  0.750000  0.950600  0.000000  0.25
  O0+  O62  1  0.250000  0.049400  0.000000  0.75
  F0+  F63  1  0.250000  0.049400  0.000000  0.25
