# generated using pymatgen
data_Li2TiMn3O8
_symmetry_space_group_name_H-M   'P 1'
_cell_length_a   24.76328000
_cell_length_b   24.80455000
_cell_length_c   8.19360000
_cell_angle_alpha   90.00000000
_cell_angle_beta   90.00000000
_cell_angle_gamma   90.00000000
_symmetry_Int_Tables_number   1
_chemical_formula_structural   Li2TiMn3O8
_chemical_formula_sum   'Li72 Ti36 Mn108 O288'
_cell_volume   5032.85338987
_cell_formula_units_Z   36
loop_
 _symmetry_equiv_pos_site_id
 _symmetry_equiv_pos_as_xyz
  1  'x, y, z'
loop_
 _atom_type_symbol
 _atom_type_oxidation_number
  Li0+  0.0
  Ti0+  0.0
  Mn0+  0.0
  O0+  0.0
loop_
 _atom_site_type_symbol
 _atom_site_label
 _atom_site_symmetry_multiplicity
 _atom_site_fract_x
 _atom_site_fract_y
 _atom_site_fract_z
 _atom_site_occupancy
  Li0+  Li0  1  0.875000  0.875000  0.875000  1.0
  Li0+  Li1  1  0.125000  0.125000  0.125000  1.0
  Li0+  Li2  1  0.875000  0.375000  0.375000  1.0
  Li0+  Li3  1  0.125000  0.625000  0.625000  1.0
  Li0+  Li4  1  0.375000  0.875000  0.375000  1.0
  Li0+  Li5  1  0.625000  0.125000  0.625000  1.0
  Li0+  Li6  1  0.375000  0.375000  0.875000  1.0
  Li0+  Li7  1  0.625000  0.625000  0.125000  1.0
  Li0+  Li8  1  0.125000  0.960800  0.625000  1.0
  Li0+  Li9  1  0.125000  0.789200  0.125000  1.0
  Li0+  Li10  1  0.625000  0.960800  0.125000  1.0
  Li0+  Li11  1  0.625000  0.789200  0.625000  1.0
  Li0+  Li12  1  0.875000  0.039200  0.375000  1.0
  Li0+  Li13  1  0.875000  0.210800  0.875000  1.0
  Li0+  Li14  1  0.375000  0.039200  0.875000  1.0
  Li0+  Li15  1  0.375000  0.210800  0.375000  1.0
  Li0+  Li16  1  0.125000  0.460800  0.125000  1.0
  Li0+  Li17  1  0.125000  0.289200  0.625000  1.0
  Li0+  Li18  1  0.625000  0.460800  0.625000  1.0
  Li0+  Li19  1  0.625000  0.289200  0.125000  1.0
  Li0+  Li20  1  0.875000  0.539200  0.875000  1.0
  Li0+  Li21  1  0.875000  0.710800  0.375000  1.0
  Li0+  Li22  1  0.375000  0.539200  0.375000  1.0
  Li0+  Li23  1  0.375000  0.710800  0.875000  1.0
  Li0+  Li24  1  0.958200  0.125000  0.625000  1.0
  Li0+  Li25  1  0.958200  0.625000  0.125000  1.0
  Li0+  Li26  1  0.791800  0.125000  0.125000  1.0
  Li0+  Li27  1  0.791800  0.625000  0.625000  1.0
  Li0+  Li28  1  0.041800  0.875000  0.375000  1.0
  Li0+  Li29  1  0.041800  0.375000  0.875000  1.0
  Li0+  Li30  1  0.208200  0.875000  0.875000  1.0
  Li0+  Li31  1  0.208200  0.375000  0.375000  1.0
  Li0+  Li32  1  0.458200  0.125000  0.125000  1.0
  Li0+  Li33  1  0.458200  0.625000  0.625000  1.0
  Li0+  Li34  1  0.291800  0.125000  0.625000  1.0
  Li0+  Li35  1  0.291800  0.625000  0.125000  1.0
  Li0+  Li36  1  0.541800  0.875000  0.875000  1.0
  Li0+  Li37  1  0.541800  0.375000  0.375000  1.0
  Li0+  Li38  1  0.708200  0.875000  0.375000  1.0
  Li0+  Li39  1  0.708200  0.375000  0.875000  1.0
  Li0+  Li40  1  0.035600  0.045200  0.870000  1.0
  Li0+  Li41  1  0.035600  0.704800  0.880000  1.0
  Li0+  Li42  1  0.714400  0.045200  0.880000  1.0
  Li0+  Li43  1  0.714400  0.704800  0.870000  1.0
  Li0+  Li44  1  0.964400  0.954800  0.130000  1.0
  Li0+  Li45  1  0.964400  0.295200  0.120000  1.0
  Li0+  Li46  1  0.285600  0.954800  0.120000  1.0
  Li0+  Li47  1  0.285600  0.295200  0.130000  1.0
  Li0+  Li48  1  0.035600  0.545200  0.370000  1.0
  Li0+  Li49  1  0.035600  0.204800  0.380000  1.0
  Li0+  Li50  1  0.714400  0.545200  0.380000  1.0
  Li0+  Li51  1  0.714400  0.204800  0.370000  1.0
  Li0+  Li52  1  0.964400  0.454800  0.630000  1.0
  Li0+  Li53  1  0.964400  0.795200  0.620000  1.0
  Li0+  Li54  1  0.285600  0.454800  0.620000  1.0
  Li0+  Li55  1  0.285600  0.795200  0.630000  1.0
  Li0+  Li56  1  0.535600  0.045200  0.370000  1.0
  Li0+  Li57  1  0.535600  0.704800  0.380000  1.0
  Li0+  Li58  1  0.214400  0.045200  0.380000  1.0
  Li0+  Li59  1  0.214400  0.704800  0.370000  1.0
  Li0+  Li60  1  0.464400  0.954800  0.630000  1.0
  Li0+  Li61  1  0.464400  0.295200  0.620000  1.0
  Li0+  Li62  1  0.785600  0.954800  0.620000  1.0
  Li0+  Li63  1  0.785600  0.295200  0.630000  1.0
  Li0+  Li64  1  0.535600  0.545200  0.870000  1.0
  Li0+  Li65  1  0.535600  0.204800  0.880000  1.0
  Li0+  Li66  1  0.214400  0.545200  0.880000  1.0
  Li0+  Li67  1  0.214400  0.204800  0.870000  1.0
  Li0+  Li68  1  0.464400  0.454800  0.130000  1.0
  Li0+  Li69  1  0.464400  0.795200  0.120000  1.0
  Li0+  Li70  1  0.785600  0.454800  0.120000  1.0
  Li0+  Li71  1  0.785600  0.795200  0.130000  1.0
  Ti0+  Ti72  1  0.000000  0.000000  0.500000  0.25
  Mn0+  Mn73  1  0.000000  0.000000  0.500000  0.75
  Ti0+  Ti74  1  0.000000  0.750000  0.250000  0.25
  Mn0+  Mn75  1  0.000000  0.750000  0.250000  0.75
  Ti0+  Ti76  1  0.750000  0.000000  0.250000  0.25
  Mn0+  Mn77  1  0.750000  0.000000  0.250000  0.75
  Ti0+  Ti78  1  0.750000  0.750000  0.500000  0.25
  Mn0+  Mn79  1  0.750000  0.750000  0.500000  0.75
  Ti0+  Ti80  1  0.000000  0.250000  0.750000  0.25
  Mn0+  Mn81  1  0.000000  0.250000  0.750000  0.75
  Ti0+  Ti82  1  0.250000  0.000000  0.750000  0.25
  Mn0+  Mn83  1  0.250000  0.000000  0.750000  0.75
  Ti0+  Ti84  1  0.250000  0.250000  0.500000  0.25
  Mn0+  Mn85  1  0.250000  0.250000  0.500000  0.75
  Ti0+  Ti86  1  0.000000  0.500000  0.000000  0.25
  Mn0+  Mn87  1  0.000000  0.500000  0.000000  0.75
  Ti0+  Ti88  1  0.750000  0.500000  0.750000  0.25
  Mn0+  Mn89  1  0.750000  0.500000  0.750000  0.75
  Ti0+  Ti90  1  0.750000  0.250000  0.000000  0.25
  Mn0+  Mn91  1  0.750000  0.250000  0.000000  0.75
  Ti0+  Ti92  1  0.250000  0.500000  0.250000  0.25
  Mn0+  Mn93  1  0.250000  0.500000  0.250000  0.75
  Ti0+  Ti94  1  0.250000  0.750000  0.000000  0.25
  Mn0+  Mn95  1  0.250000  0.750000  0.000000  0.75
  Ti0+  Ti96  1  0.500000  0.000000  0.000000  0.25
  Mn0+  Mn97  1  0.500000  0.000000  0.000000  0.75
  Ti0+  Ti98  1  0.500000  0.750000  0.750000  0.25
  Mn0+  Mn99  1  0.500000  0.750000  0.750000  0.75
  Ti0+  Ti100  1  0.500000  0.250000  0.250000  0.25
  Mn0+  Mn101  1  0.500000  0.250000  0.250000  0.75
  Ti0+  Ti102  1  0.500000  0.500000  0.500000  0.25
  Mn0+  Mn103  1  0.500000  0.500000  0.500000  0.75
  Ti0+  Ti104  1  0.831500  0.835500  0.502500  0.25
  Mn0+  Mn105  1  0.831500  0.835500  0.502500  0.75
  Ti0+  Ti106  1  0.831500  0.914500  0.247500  0.25
  Mn0+  Mn107  1  0.831500  0.914500  0.247500  0.75
  Ti0+  Ti108  1  0.918500  0.835500  0.247500  0.25
  Mn0+  Mn109  1  0.918500  0.835500  0.247500  0.75
  Ti0+  Ti110  1  0.918500  0.914500  0.502500  0.25
  Mn0+  Mn111  1  0.918500  0.914500  0.502500  0.75
  Ti0+  Ti112  1  0.168500  0.164500  0.497500  0.25
  Mn0+  Mn113  1  0.168500  0.164500  0.497500  0.75
  Ti0+  Ti114  1  0.168500  0.085500  0.752500  0.25
  Mn0+  Mn115  1  0.168500  0.085500  0.752500  0.75
  Ti0+  Ti116  1  0.081500  0.164500  0.752500  0.25
  Mn0+  Mn117  1  0.081500  0.164500  0.752500  0.75
  Ti0+  Ti118  1  0.081500  0.085500  0.497500  0.25
  Mn0+  Mn119  1  0.081500  0.085500  0.497500  0.75
  Ti0+  Ti120  1  0.831500  0.335500  0.002500  0.25
  Mn0+  Mn121  1  0.831500  0.335500  0.002500  0.75
  Ti0+  Ti122  1  0.831500  0.414500  0.747500  0.25
  Mn0+  Mn123  1  0.831500  0.414500  0.747500  0.75
  Ti0+  Ti124  1  0.918500  0.335500  0.747500  0.25
  Mn0+  Mn125  1  0.918500  0.335500  0.747500  0.75
  Ti0+  Ti126  1  0.918500  0.414500  0.002500  0.25
  Mn0+  Mn127  1  0.918500  0.414500  0.002500  0.75
  Ti0+  Ti128  1  0.168500  0.664500  0.997500  0.25
  Mn0+  Mn129  1  0.168500  0.664500  0.997500  0.75
  Ti0+  Ti130  1  0.168500  0.585500  0.252500  0.25
  Mn0+  Mn131  1  0.168500  0.585500  0.252500  0.75
  Ti0+  Ti132  1  0.081500  0.664500  0.252500  0.25
  Mn0+  Mn133  1  0.081500  0.664500  0.252500  0.75
  Ti0+  Ti134  1  0.081500  0.585500  0.997500  0.25
  Mn0+  Mn135  1  0.081500  0.585500  0.997500  0.75
  Ti0+  Ti136  1  0.331500  0.835500  0.002500  0.25
  Mn0+  Mn137  1  0.331500  0.835500  0.002500  0.75
  Ti0+  Ti138  1  0.331500  0.914500  0.747500  0.25
  Mn0+  Mn139  1  0.331500  0.914500  0.747500  0.75
  Ti0+  Ti140  1  0.418500  0.835500  0.747500  0.25
  Mn0+  Mn141  1  0.418500  0.835500  0.747500  0.75
  Ti0+  Ti142  1  0.418500  0.914500  0.002500  0.25
  Mn0+  Mn143  1  0.418500  0.914500  0.002500  0.75
  Ti0+  Ti144  1  0.668500  0.164500  0.997500  0.25
  Mn0+  Mn145  1  0.668500  0.164500  0.997500  0.75
  Ti0+  Ti146  1  0.668500  0.085500  0.252500  0.25
  Mn0+  Mn147  1  0.668500  0.085500  0.252500  0.75
  Ti0+  Ti148  1  0.581500  0.164500  0.252500  0.25
  Mn0+  Mn149  1  0.581500  0.164500  0.252500  0.75
  Ti0+  Ti150  1  0.581500  0.085500  0.997500  0.25
  Mn0+  Mn151  1  0.581500  0.085500  0.997500  0.75
  Ti0+  Ti152  1  0.331500  0.335500  0.502500  0.25
  Mn0+  Mn153  1  0.331500  0.335500  0.502500  0.75
  Ti0+  Ti154  1  0.331500  0.414500  0.247500  0.25
  Mn0+  Mn155  1  0.331500  0.414500  0.247500  0.75
  Ti0+  Ti156  1  0.418500  0.335500  0.247500  0.25
  Mn0+  Mn157  1  0.418500  0.335500  0.247500  0.75
  Ti0+  Ti158  1  0.418500  0.414500  0.502500  0.25
  Mn0+  Mn159  1  0.418500  0.414500  0.502500  0.75
  Ti0+  Ti160  1  0.668500  0.664500  0.497500  0.25
  Mn0+  Mn161  1  0.668500  0.664500  0.497500  0.75
  Ti0+  Ti162  1  0.668500  0.585500  0.752500  0.25
  Mn0+  Mn163  1  0.668500  0.585500  0.752500  0.75
  Ti0+  Ti164  1  0.581500  0.664500  0.752500  0.25
  Mn0+  Mn165  1  0.581500  0.664500  0.752500  0.75
  Ti0+  Ti166  1  0.581500  0.585500  0.497500  0.25
  Mn0+  Mn167  1  0.581500  0.585500  0.497500  0.75
  Ti0+  Ti168  1  0.834900  0.080700  0.747800  0.25
  Mn0+  Mn169  1  0.834900  0.080700  0.747800  0.75
  Ti0+  Ti170  1  0.834900  0.669300  0.002200  0.25
  Mn0+  Mn171  1  0.834900  0.669300  0.002200  0.75
  Ti0+  Ti172  1  0.915100  0.080700  0.002200  0.25
  Mn0+  Mn173  1  0.915100  0.080700  0.002200  0.75
  Ti0+  Ti174  1  0.915100  0.669300  0.747800  0.25
  Mn0+  Mn175  1  0.915100  0.669300  0.747800  0.75
  Ti0+  Ti176  1  0.165100  0.919300  0.252200  0.25
  Mn0+  Mn177  1  0.165100  0.919300  0.252200  0.75
  Ti0+  Ti178  1  0.165100  0.330700  0.997800  0.25
  Mn0+  Mn179  1  0.165100  0.330700  0.997800  0.75
  Ti0+  Ti180  1  0.084900  0.919300  0.997800  0.25
  Mn0+  Mn181  1  0.084900  0.919300  0.997800  0.75
  Ti0+  Ti182  1  0.084900  0.330700  0.252200  0.25
  Mn0+  Mn183  1  0.084900  0.330700  0.252200  0.75
  Ti0+  Ti184  1  0.834900  0.580700  0.247800  0.25
  Mn0+  Mn185  1  0.834900  0.580700  0.247800  0.75
  Ti0+  Ti186  1  0.834900  0.169300  0.502200  0.25
  Mn0+  Mn187  1  0.834900  0.169300  0.502200  0.75
  Ti0+  Ti188  1  0.915100  0.580700  0.502200  0.25
  Mn0+  Mn189  1  0.915100  0.580700  0.502200  0.75
  Ti0+  Ti190  1  0.915100  0.169300  0.247800  0.25
  Mn0+  Mn191  1  0.915100  0.169300  0.247800  0.75
  Ti0+  Ti192  1  0.165100  0.419300  0.752200  0.25
  Mn0+  Mn193  1  0.165100  0.419300  0.752200  0.75
  Ti0+  Ti194  1  0.165100  0.830700  0.497800  0.25
  Mn0+  Mn195  1  0.165100  0.830700  0.497800  0.75
  Ti0+  Ti196  1  0.084900  0.419300  0.497800  0.25
  Mn0+  Mn197  1  0.084900  0.419300  0.497800  0.75
  Ti0+  Ti198  1  0.084900  0.830700  0.752200  0.25
  Mn0+  Mn199  1  0.084900  0.830700  0.752200  0.75
  Ti0+  Ti200  1  0.334900  0.080700  0.247800  0.25
  Mn0+  Mn201  1  0.334900  0.080700  0.247800  0.75
  Ti0+  Ti202  1  0.334900  0.669300  0.502200  0.25
  Mn0+  Mn203  1  0.334900  0.669300  0.502200  0.75
  Ti0+  Ti204  1  0.415100  0.080700  0.502200  0.25
  Mn0+  Mn205  1  0.415100  0.080700  0.502200  0.75
  Ti0+  Ti206  1  0.415100  0.669300  0.247800  0.25
  Mn0+  Mn207  1  0.415100  0.669300  0.247800  0.75
  Ti0+  Ti208  1  0.665100  0.919300  0.752200  0.25
  Mn0+  Mn209  1  0.665100  0.919300  0.752200  0.75
  Ti0+  Ti210  1  0.665100  0.330700  0.497800  0.25
  Mn0+  Mn211  1  0.665100  0.330700  0.497800  0.75
  Ti0+  Ti212  1  0.584900  0.919300  0.497800  0.25
  Mn0+  Mn213  1  0.584900  0.919300  0.497800  0.75
  Ti0+  Ti214  1  0.584900  0.330700  0.752200  0.25
  Mn0+  Mn215  1  0.584900  0.330700  0.752200  0.75
  Ti0+  Ti216  1  0.334900  0.580700  0.747800  0.25
  Mn0+  Mn217  1  0.334900  0.580700  0.747800  0.75
  Ti0+  Ti218  1  0.334900  0.169300  0.002200  0.25
  Mn0+  Mn219  1  0.334900  0.169300  0.002200  0.75
  Ti0+  Ti220  1  0.415100  0.580700  0.002200  0.25
  Mn0+  Mn221  1  0.415100  0.580700  0.002200  0.75
  Ti0+  Ti222  1  0.415100  0.169300  0.747800  0.25
  Mn0+  Mn223  1  0.415100  0.169300  0.747800  0.75
  Ti0+  Ti224  1  0.665100  0.419300  0.252200  0.25
  Mn0+  Mn225  1  0.665100  0.419300  0.252200  0.75
  Ti0+  Ti226  1  0.665100  0.830700  0.997800  0.25
  Mn0+  Mn227  1  0.665100  0.830700  0.997800  0.75
  Ti0+  Ti228  1  0.584900  0.419300  0.997800  0.25
  Mn0+  Mn229  1  0.584900  0.419300  0.997800  0.75
  Ti0+  Ti230  1  0.584900  0.830700  0.252200  0.25
  Mn0+  Mn231  1  0.584900  0.830700  0.252200  0.75
  Ti0+  Ti232  1  0.002740  0.917560  0.756300  0.25
  Mn0+  Mn233  1  0.002740  0.917560  0.756300  0.75
  Ti0+  Ti234  1  0.002740  0.832440  0.993700  0.25
  Mn0+  Mn235  1  0.002740  0.832440  0.993700  0.75
  Ti0+  Ti236  1  0.747260  0.917560  0.993700  0.25
  Mn0+  Mn237  1  0.747260  0.917560  0.993700  0.75
  Ti0+  Ti238  1  0.747260  0.832440  0.756300  0.25
  Mn0+  Mn239  1  0.747260  0.832440  0.756300  0.75
  Ti0+  Ti240  1  0.997260  0.082440  0.243700  0.25
  Mn0+  Mn241  1  0.997260  0.082440  0.243700  0.75
  Ti0+  Ti242  1  0.997260  0.167560  0.006300  0.25
  Mn0+  Mn243  1  0.997260  0.167560  0.006300  0.75
  Ti0+  Ti244  1  0.252740  0.082440  0.006300  0.25
  Mn0+  Mn245  1  0.252740  0.082440  0.006300  0.75
  Ti0+  Ti246  1  0.252740  0.167560  0.243700  0.25
  Mn0+  Mn247  1  0.252740  0.167560  0.243700  0.75
  Ti0+  Ti248  1  0.002740  0.417560  0.256300  0.25
  Mn0+  Mn249  1  0.002740  0.417560  0.256300  0.75
  Ti0+  Ti250  1  0.002740  0.332440  0.493700  0.25
  Mn0+  Mn251  1  0.002740  0.332440  0.493700  0.75
  Ti0+  Ti252  1  0.747260  0.417560  0.493700  0.25
  Mn0+  Mn253  1  0.747260  0.417560  0.493700  0.75
  Ti0+  Ti254  1  0.747260  0.332440  0.256300  0.25
  Mn0+  Mn255  1  0.747260  0.332440  0.256300  0.75
  Ti0+  Ti256  1  0.997260  0.582440  0.743700  0.25
  Mn0+  Mn257  1  0.997260  0.582440  0.743700  0.75
  Ti0+  Ti258  1  0.997260  0.667560  0.506300  0.25
  Mn0+  Mn259  1  0.997260  0.667560  0.506300  0.75
  Ti0+  Ti260  1  0.252740  0.582440  0.506300  0.25
  Mn0+  Mn261  1  0.252740  0.582440  0.506300  0.75
  Ti0+  Ti262  1  0.252740  0.667560  0.743700  0.25
  Mn0+  Mn263  1  0.252740  0.667560  0.743700  0.75
  Ti0+  Ti264  1  0.502740  0.917560  0.256300  0.25
  Mn0+  Mn265  1  0.502740  0.917560  0.256300  0.75
  Ti0+  Ti266  1  0.502740  0.832440  0.493700  0.25
  Mn0+  Mn267  1  0.502740  0.832440  0.493700  0.75
  Ti0+  Ti268  1  0.247260  0.917560  0.493700  0.25
  Mn0+  Mn269  1  0.247260  0.917560  0.493700  0.75
  Ti0+  Ti270  1  0.247260  0.832440  0.256300  0.25
  Mn0+  Mn271  1  0.247260  0.832440  0.256300  0.75
  Ti0+  Ti272  1  0.497260  0.082440  0.743700  0.25
  Mn0+  Mn273  1  0.497260  0.082440  0.743700  0.75
  Ti0+  Ti274  1  0.497260  0.167560  0.506300  0.25
  Mn0+  Mn275  1  0.497260  0.167560  0.506300  0.75
  Ti0+  Ti276  1  0.752740  0.082440  0.506300  0.25
  Mn0+  Mn277  1  0.752740  0.082440  0.506300  0.75
  Ti0+  Ti278  1  0.752740  0.167560  0.743700  0.25
  Mn0+  Mn279  1  0.752740  0.167560  0.743700  0.75
  Ti0+  Ti280  1  0.502740  0.417560  0.756300  0.25
  Mn0+  Mn281  1  0.502740  0.417560  0.756300  0.75
  Ti0+  Ti282  1  0.502740  0.332440  0.993700  0.25
  Mn0+  Mn283  1  0.502740  0.332440  0.993700  0.75
  Ti0+  Ti284  1  0.247260  0.417560  0.993700  0.25
  Mn0+  Mn285  1  0.247260  0.417560  0.993700  0.75
  Ti0+  Ti286  1  0.247260  0.332440  0.756300  0.25
  Mn0+  Mn287  1  0.247260  0.332440  0.756300  0.75
  Ti0+  Ti288  1  0.497260  0.582440  0.243700  0.25
  Mn0+  Mn289  1  0.497260  0.582440  0.243700  0.75
  Ti0+  Ti290  1  0.497260  0.667560  0.006300  0.25
  Mn0+  Mn291  1  0.497260  0.667560  0.006300  0.75
  Ti0+  Ti292  1  0.752740  0.582440  0.006300  0.25
  Mn0+  Mn293  1  0.752740  0.582440  0.006300  0.75
  Ti0+  Ti294  1  0.752740  0.667560  0.243700  0.25
  Mn0+  Mn295  1  0.752740  0.667560  0.243700  0.75
  Ti0+  Ti296  1  0.916220  0.994840  0.752800  0.25
  Mn0+  Mn297  1  0.916220  0.994840  0.752800  0.75
  Ti0+  Ti298  1  0.916220  0.755160  0.997200  0.25
  Mn0+  Mn299  1  0.916220  0.755160  0.997200  0.75
  Ti0+  Ti300  1  0.833780  0.994840  0.997200  0.25
  Mn0+  Mn301  1  0.833780  0.994840  0.997200  0.75
  Ti0+  Ti302  1  0.833780  0.755160  0.752800  0.25
  Mn0+  Mn303  1  0.833780  0.755160  0.752800  0.75
  Ti0+  Ti304  1  0.083780  0.005160  0.247200  0.25
  Mn0+  Mn305  1  0.083780  0.005160  0.247200  0.75
  Ti0+  Ti306  1  0.083780  0.244840  0.002800  0.25
  Mn0+  Mn307  1  0.083780  0.244840  0.002800  0.75
  Ti0+  Ti308  1  0.166220  0.005160  0.002800  0.25
  Mn0+  Mn309  1  0.166220  0.005160  0.002800  0.75
  Ti0+  Ti310  1  0.166220  0.244840  0.247200  0.25
  Mn0+  Mn311  1  0.166220  0.244840  0.247200  0.75
  Ti0+  Ti312  1  0.916220  0.494840  0.252800  0.25
  Mn0+  Mn313  1  0.916220  0.494840  0.252800  0.75
  Ti0+  Ti314  1  0.916220  0.255160  0.497200  0.25
  Mn0+  Mn315  1  0.916220  0.255160  0.497200  0.75
  Ti0+  Ti316  1  0.833780  0.494840  0.497200  0.25
  Mn0+  Mn317  1  0.833780  0.494840  0.497200  0.75
  Ti0+  Ti318  1  0.833780  0.255160  0.252800  0.25
  Mn0+  Mn319  1  0.833780  0.255160  0.252800  0.75
  Ti0+  Ti320  1  0.083780  0.505160  0.747200  0.25
  Mn0+  Mn321  1  0.083780  0.505160  0.747200  0.75
  Ti0+  Ti322  1  0.083780  0.744840  0.502800  0.25
  Mn0+  Mn323  1  0.083780  0.744840  0.502800  0.75
  Ti0+  Ti324  1  0.166220  0.505160  0.502800  0.25
  Mn0+  Mn325  1  0.166220  0.505160  0.502800  0.75
  Ti0+  Ti326  1  0.166220  0.744840  0.747200  0.25
  Mn0+  Mn327  1  0.166220  0.744840  0.747200  0.75
  Ti0+  Ti328  1  0.416220  0.994840  0.252800  0.25
  Mn0+  Mn329  1  0.416220  0.994840  0.252800  0.75
  Ti0+  Ti330  1  0.416220  0.755160  0.497200  0.25
  Mn0+  Mn331  1  0.416220  0.755160  0.497200  0.75
  Ti0+  Ti332  1  0.333780  0.994840  0.497200  0.25
  Mn0+  Mn333  1  0.333780  0.994840  0.497200  0.75
  Ti0+  Ti334  1  0.333780  0.755160  0.252800  0.25
  Mn0+  Mn335  1  0.333780  0.755160  0.252800  0.75
  Ti0+  Ti336  1  0.583780  0.005160  0.747200  0.25
  Mn0+  Mn337  1  0.583780  0.005160  0.747200  0.75
  Ti0+  Ti338  1  0.583780  0.244840  0.502800  0.25
  Mn0+  Mn339  1  0.583780  0.244840  0.502800  0.75
  Ti0+  Ti340  1  0.666220  0.005160  0.502800  0.25
  Mn0+  Mn341  1  0.666220  0.005160  0.502800  0.75
  Ti0+  Ti342  1  0.666220  0.244840  0.747200  0.25
  Mn0+  Mn343  1  0.666220  0.244840  0.747200  0.75
  Ti0+  Ti344  1  0.416220  0.494840  0.752800  0.25
  Mn0+  Mn345  1  0.416220  0.494840  0.752800  0.75
  Ti0+  Ti346  1  0.416220  0.255160  0.997200  0.25
  Mn0+  Mn347  1  0.416220  0.255160  0.997200  0.75
  Ti0+  Ti348  1  0.333780  0.494840  0.997200  0.25
  Mn0+  Mn349  1  0.333780  0.494840  0.997200  0.75
  Ti0+  Ti350  1  0.333780  0.255160  0.752800  0.25
  Mn0+  Mn351  1  0.333780  0.255160  0.752800  0.75
  Ti0+  Ti352  1  0.583780  0.505160  0.247200  0.25
  Mn0+  Mn353  1  0.583780  0.505160  0.247200  0.75
  Ti0+  Ti354  1  0.583780  0.744840  0.002800  0.25
  Mn0+  Mn355  1  0.583780  0.744840  0.002800  0.75
  Ti0+  Ti356  1  0.666220  0.505160  0.002800  0.25
  Mn0+  Mn357  1  0.666220  0.505160  0.002800  0.75
  Ti0+  Ti358  1  0.666220  0.744840  0.247200  0.25
  Mn0+  Mn359  1  0.666220  0.744840  0.247200  0.75
  O0+  O360  1  0.924600  0.918700  0.742000  1.0
  O0+  O361  1  0.924600  0.831300  0.008000  1.0
  O0+  O362  1  0.825400  0.918700  0.008000  1.0
  O0+  O363  1  0.825400  0.831300  0.742000  1.0
  O0+  O364  1  0.075400  0.081300  0.258000  1.0
  O0+  O365  1  0.075400  0.168700  0.992000  1.0
  O0+  O366  1  0.174600  0.081300  0.992000  1.0
  O0+  O367  1  0.174600  0.168700  0.258000  1.0
  O0+  O368  1  0.924600  0.418700  0.242000  1.0
  O0+  O369  1  0.924600  0.331300  0.508000  1.0
  O0+  O370  1  0.825400  0.418700  0.508000  1.0
  O0+  O371  1  0.825400  0.331300  0.242000  1.0
  O0+  O372  1  0.075400  0.581300  0.758000  1.0
  O0+  O373  1  0.075400  0.668700  0.492000  1.0
  O0+  O374  1  0.174600  0.581300  0.492000  1.0
  O0+  O375  1  0.174600  0.668700  0.758000  1.0
  O0+  O376  1  0.424600  0.918700  0.242000  1.0
  O0+  O377  1  0.424600  0.831300  0.508000  1.0
  O0+  O378  1  0.325400  0.918700  0.508000  1.0
  O0+  O379  1  0.325400  0.831300  0.242000  1.0
  O0+  O380  1  0.575400  0.081300  0.758000  1.0
  O0+  O381  1  0.575400  0.168700  0.492000  1.0
  O0+  O382  1  0.674600  0.081300  0.492000  1.0
  O0+  O383  1  0.674600  0.168700  0.758000  1.0
  O0+  O384  1  0.424600  0.418700  0.742000  1.0
  O0+  O385  1  0.424600  0.331300  0.008000  1.0
  O0+  O386  1  0.325400  0.418700  0.008000  1.0
  O0+  O387  1  0.325400  0.331300  0.742000  1.0
  O0+  O388  1  0.575400  0.581300  0.258000  1.0
  O0+  O389  1  0.575400  0.668700  0.992000  1.0
  O0+  O390  1  0.674600  0.581300  0.992000  1.0
  O0+  O391  1  0.674600  0.668700  0.258000  1.0
  O0+  O392  1  0.826100  0.759200  0.501000  1.0
  O0+  O393  1  0.826100  0.990800  0.249000  1.0
  O0+  O394  1  0.923900  0.759200  0.249000  1.0
  O0+  O395  1  0.923900  0.990800  0.501000  1.0
  O0+  O396  1  0.173900  0.240800  0.499000  1.0
  O0+  O397  1  0.173900  0.009200  0.751000  1.0
  O0+  O398  1  0.076100  0.240800  0.751000  1.0
  O0+  O399  1  0.076100  0.009200  0.499000  1.0
  O0+  O400  1  0.826100  0.259200  0.001000  1.0
  O0+  O401  1  0.826100  0.490800  0.749000  1.0
  O0+  O402  1  0.923900  0.259200  0.749000  1.0
  O0+  O403  1  0.923900  0.490800  0.001000  1.0
  O0+  O404  1  0.173900  0.740800  0.999000  1.0
  O0+  O405  1  0.173900  0.509200  0.251000  1.0
  O0+  O406  1  0.076100  0.740800  0.251000  1.0
  O0+  O407  1  0.076100  0.509200  0.999000  1.0
  O0+  O408  1  0.326100  0.759200  0.001000  1.0
  O0+  O409  1  0.326100  0.990800  0.749000  1.0
  O0+  O410  1  0.423900  0.759200  0.749000  1.0
  O0+  O411  1  0.423900  0.990800  0.001000  1.0
  O0+  O412  1  0.673900  0.240800  0.999000  1.0
  O0+  O413  1  0.673900  0.009200  0.251000  1.0
  O0+  O414  1  0.576100  0.240800  0.251000  1.0
  O0+  O415  1  0.576100  0.009200  0.999000  1.0
  O0+  O416  1  0.326100  0.259200  0.501000  1.0
  O0+  O417  1  0.326100  0.490800  0.249000  1.0
  O0+  O418  1  0.423900  0.259200  0.249000  1.0
  O0+  O419  1  0.423900  0.490800  0.501000  1.0
  O0+  O420  1  0.673900  0.740800  0.499000  1.0
  O0+  O421  1  0.673900  0.509200  0.751000  1.0
  O0+  O422  1  0.576100  0.740800  0.751000  1.0
  O0+  O423  1  0.576100  0.509200  0.499000  1.0
  O0+  O424  1  0.828200  0.080100  0.513000  1.0
  O0+  O425  1  0.828200  0.669900  0.237000  1.0
  O0+  O426  1  0.921800  0.080100  0.237000  1.0
  O0+  O427  1  0.921800  0.669900  0.513000  1.0
  O0+  O428  1  0.171800  0.919900  0.487000  1.0
  O0+  O429  1  0.171800  0.330100  0.763000  1.0
  O0+  O430  1  0.078200  0.919900  0.763000  1.0
  O0+  O431  1  0.078200  0.330100  0.487000  1.0
  O0+  O432  1  0.828200  0.580100  0.013000  1.0
  O0+  O433  1  0.828200  0.169900  0.737000  1.0
  O0+  O434  1  0.921800  0.580100  0.737000  1.0
  O0+  O435  1  0.921800  0.169900  0.013000  1.0
  O0+  O436  1  0.171800  0.419900  0.987000  1.0
  O0+  O437  1  0.171800  0.830100  0.263000  1.0
  O0+  O438  1  0.078200  0.419900  0.263000  1.0
  O0+  O439  1  0.078200  0.830100  0.987000  1.0
  O0+  O440  1  0.328200  0.080100  0.013000  1.0
  O0+  O441  1  0.328200  0.669900  0.737000  1.0
  O0+  O442  1  0.421800  0.080100  0.737000  1.0
  O0+  O443  1  0.421800  0.669900  0.013000  1.0
  O0+  O444  1  0.671800  0.919900  0.987000  1.0
  O0+  O445  1  0.671800  0.330100  0.263000  1.0
  O0+  O446  1  0.578200  0.919900  0.263000  1.0
  O0+  O447  1  0.578200  0.330100  0.987000  1.0
  O0+  O448  1  0.328200  0.580100  0.513000  1.0
  O0+  O449  1  0.328200  0.169900  0.237000  1.0
  O0+  O450  1  0.421800  0.580100  0.237000  1.0
  O0+  O451  1  0.421800  0.169900  0.513000  1.0
  O0+  O452  1  0.671800  0.419900  0.487000  1.0
  O0+  O453  1  0.671800  0.830100  0.763000  1.0
  O0+  O454  1  0.578200  0.419900  0.763000  1.0
  O0+  O455  1  0.578200  0.830100  0.487000  1.0
  O0+  O456  1  0.005500  0.923300  0.530000  1.0
  O0+  O457  1  0.005500  0.826700  0.220000  1.0
  O0+  O458  1  0.744500  0.923300  0.220000  1.0
  O0+  O459  1  0.744500  0.826700  0.530000  1.0
  O0+  O460  1  0.994500  0.076700  0.470000  1.0
  O0+  O461  1  0.994500  0.173300  0.780000  1.0
  O0+  O462  1  0.255500  0.076700  0.780000  1.0
  O0+  O463  1  0.255500  0.173300  0.470000  1.0
  O0+  O464  1  0.005500  0.423300  0.030000  1.0
  O0+  O465  1  0.005500  0.326700  0.720000  1.0
  O0+  O466  1  0.744500  0.423300  0.720000  1.0
  O0+  O467  1  0.744500  0.326700  0.030000  1.0
  O0+  O468  1  0.994500  0.576700  0.970000  1.0
  O0+  O469  1  0.994500  0.673300  0.280000  1.0
  O0+  O470  1  0.255500  0.576700  0.280000  1.0
  O0+  O471  1  0.255500  0.673300  0.970000  1.0
  O0+  O472  1  0.505500  0.923300  0.030000  1.0
  O0+  O473  1  0.505500  0.826700  0.720000  1.0
  O0+  O474  1  0.244500  0.923300  0.720000  1.0
  O0+  O475  1  0.244500  0.826700  0.030000  1.0
  O0+  O476  1  0.494500  0.076700  0.970000  1.0
  O0+  O477  1  0.494500  0.173300  0.280000  1.0
  O0+  O478  1  0.755500  0.076700  0.280000  1.0
  O0+  O479  1  0.755500  0.173300  0.970000  1.0
  O0+  O480  1  0.505500  0.423300  0.530000  1.0
  O0+  O481  1  0.505500  0.326700  0.220000  1.0
  O0+  O482  1  0.244500  0.423300  0.220000  1.0
  O0+  O483  1  0.244500  0.326700  0.530000  1.0
  O0+  O484  1  0.494500  0.576700  0.470000  1.0
  O0+  O485  1  0.494500  0.673300  0.780000  1.0
  O0+  O486  1  0.755500  0.576700  0.780000  1.0
  O0+  O487  1  0.755500  0.673300  0.470000  1.0
  O0+  O488  1  0.755200  0.757600  0.753000  1.0
  O0+  O489  1  0.755200  0.992400  0.997000  1.0
  O0+  O490  1  0.994800  0.757600  0.997000  1.0
  O0+  O491  1  0.994800  0.992400  0.753000  1.0
  O0+  O492  1  0.244800  0.242400  0.247000  1.0
  O0+  O493  1  0.244800  0.007600  0.003000  1.0
  O0+  O494  1  0.005200  0.242400  0.003000  1.0
  O0+  O495  1  0.005200  0.007600  0.247000  1.0
  O0+  O496  1  0.755200  0.257600  0.253000  1.0
  O0+  O497  1  0.755200  0.492400  0.497000  1.0
  O0+  O498  1  0.994800  0.257600  0.497000  1.0
  O0+  O499  1  0.994800  0.492400  0.253000  1.0
  O0+  O500  1  0.244800  0.742400  0.747000  1.0
  O0+  O501  1  0.244800  0.507600  0.503000  1.0
  O0+  O502  1  0.005200  0.742400  0.503000  1.0
  O0+  O503  1  0.005200  0.507600  0.747000  1.0
  O0+  O504  1  0.255200  0.757600  0.253000  1.0
  O0+  O505  1  0.255200  0.992400  0.497000  1.0
  O0+  O506  1  0.494800  0.757600  0.497000  1.0
  O0+  O507  1  0.494800  0.992400  0.253000  1.0
  O0+  O508  1  0.744800  0.242400  0.747000  1.0
  O0+  O509  1  0.744800  0.007600  0.503000  1.0
  O0+  O510  1  0.505200  0.242400  0.503000  1.0
  O0+  O511  1  0.505200  0.007600  0.747000  1.0
  O0+  O512  1  0.255200  0.257600  0.753000  1.0
  O0+  O513  1  0.255200  0.492400  0.997000  1.0
  O0+  O514  1  0.494800  0.257600  0.997000  1.0
  O0+  O515  1  0.494800  0.492400  0.753000  1.0
  O0+  O516  1  0.744800  0.742400  0.247000  1.0
  O0+  O517  1  0.744800  0.507600  0.003000  1.0
  O0+  O518  1  0.505200  0.742400  0.003000  1.0
  O0+  O519  1  0.505200  0.507600  0.247000  1.0
  O0+  O520  1  0.004300  0.839800  0.765000  1.0
  O0+  O521  1  0.004300  0.910200  0.985000  1.0
  O0+  O522  1  0.745700  0.839800  0.985000  1.0
  O0+  O523  1  0.745700  0.910200  0.765000  1.0
  O0+  O524  1  0.995700  0.160200  0.235000  1.0
  O0+  O525  1  0.995700  0.089800  0.015000  1.0
  O0+  O526  1  0.254300  0.160200  0.015000  1.0
  O0+  O527  1  0.254300  0.089800  0.235000  1.0
  O0+  O528  1  0.004300  0.339800  0.265000  1.0
  O0+  O529  1  0.004300  0.410200  0.485000  1.0
  O0+  O530  1  0.745700  0.339800  0.485000  1.0
  O0+  O531  1  0.745700  0.410200  0.265000  1.0
  O0+  O532  1  0.995700  0.660200  0.735000  1.0
  O0+  O533  1  0.995700  0.589800  0.515000  1.0
  O0+  O534  1  0.254300  0.660200  0.515000  1.0
  O0+  O535  1  0.254300  0.589800  0.735000  1.0
  O0+  O536  1  0.504300  0.839800  0.265000  1.0
  O0+  O537  1  0.504300  0.910200  0.485000  1.0
  O0+  O538  1  0.245700  0.839800  0.485000  1.0
  O0+  O539  1  0.245700  0.910200  0.265000  1.0
  O0+  O540  1  0.495700  0.160200  0.735000  1.0
  O0+  O541  1  0.495700  0.089800  0.515000  1.0
  O0+  O542  1  0.754300  0.160200  0.515000  1.0
  O0+  O543  1  0.754300  0.089800  0.735000  1.0
  O0+  O544  1  0.504300  0.339800  0.765000  1.0
  O0+  O545  1  0.504300  0.410200  0.985000  1.0
  O0+  O546  1  0.245700  0.339800  0.985000  1.0
  O0+  O547  1  0.245700  0.410200  0.765000  1.0
  O0+  O548  1  0.495700  0.660200  0.235000  1.0
  O0+  O549  1  0.495700  0.589800  0.015000  1.0
  O0+  O550  1  0.754300  0.660200  0.015000  1.0
  O0+  O551  1  0.754300  0.589800  0.235000  1.0
  O0+  O552  1  0.913800  0.073400  0.764000  1.0
  O0+  O553  1  0.913800  0.676600  0.986000  1.0
  O0+  O554  1  0.836200  0.073400  0.986000  1.0
  O0+  O555  1  0.836200  0.676600  0.764000  1.0
  O0+  O556  1  0.086200  0.926600  0.236000  1.0
  O0+  O557  1  0.086200  0.323400  0.014000  1.0
  O0+  O558  1  0.163800  0.926600  0.014000  1.0
  O0+  O559  1  0.163800  0.323400  0.236000  1.0
  O0+  O560  1  0.913800  0.573400  0.264000  1.0
  O0+  O561  1  0.913800  0.176600  0.486000  1.0
  O0+  O562  1  0.836200  0.573400  0.486000  1.0
  O0+  O563  1  0.836200  0.176600  0.264000  1.0
  O0+  O564  1  0.086200  0.426600  0.736000  1.0
  O0+  O565  1  0.086200  0.823400  0.514000  1.0
  O0+  O566  1  0.163800  0.426600  0.514000  1.0
  O0+  O567  1  0.163800  0.823400  0.736000  1.0
  O0+  O568  1  0.413800  0.073400  0.264000  1.0
  O0+  O569  1  0.413800  0.676600  0.486000  1.0
  O0+  O570  1  0.336200  0.073400  0.486000  1.0
  O0+  O571  1  0.336200  0.676600  0.264000  1.0
  O0+  O572  1  0.586200  0.926600  0.736000  1.0
  O0+  O573  1  0.586200  0.323400  0.514000  1.0
  O0+  O574  1  0.663800  0.926600  0.514000  1.0
  O0+  O575  1  0.663800  0.323400  0.736000  1.0
  O0+  O576  1  0.413800  0.573400  0.764000  1.0
  O0+  O577  1  0.413800  0.176600  0.986000  1.0
  O0+  O578  1  0.336200  0.573400  0.986000  1.0
  O0+  O579  1  0.336200  0.176600  0.764000  1.0
  O0+  O580  1  0.586200  0.426600  0.236000  1.0
  O0+  O581  1  0.586200  0.823400  0.014000  1.0
  O0+  O582  1  0.663800  0.426600  0.014000  1.0
  O0+  O583  1  0.663800  0.823400  0.236000  1.0
  O0+  O584  1  0.841000  0.995000  0.770000  1.0
  O0+  O585  1  0.841000  0.755000  0.980000  1.0
  O0+  O586  1  0.909000  0.995000  0.980000  1.0
  O0+  O587  1  0.909000  0.755000  0.770000  1.0
  O0+  O588  1  0.159000  0.005000  0.230000  1.0
  O0+  O589  1  0.159000  0.245000  0.020000  1.0
  O0+  O590  1  0.091000  0.005000  0.020000  1.0
  O0+  O591  1  0.091000  0.245000  0.230000  1.0
  O0+  O592  1  0.841000  0.495000  0.270000  1.0
  O0+  O593  1  0.841000  0.255000  0.480000  1.0
  O0+  O594  1  0.909000  0.495000  0.480000  1.0
  O0+  O595  1  0.909000  0.255000  0.270000  1.0
  O0+  O596  1  0.159000  0.505000  0.730000  1.0
  O0+  O597  1  0.159000  0.745000  0.520000  1.0
  O0+  O598  1  0.091000  0.505000  0.520000  1.0
  O0+  O599  1  0.091000  0.745000  0.730000  1.0
  O0+  O600  1  0.341000  0.995000  0.270000  1.0
  O0+  O601  1  0.341000  0.755000  0.480000  1.0
  O0+  O602  1  0.409000  0.995000  0.480000  1.0
  O0+  O603  1  0.409000  0.755000  0.270000  1.0
  O0+  O604  1  0.659000  0.005000  0.730000  1.0
  O0+  O605  1  0.659000  0.245000  0.520000  1.0
  O0+  O606  1  0.591000  0.005000  0.520000  1.0
  O0+  O607  1  0.591000  0.245000  0.730000  1.0
  O0+  O608  1  0.341000  0.495000  0.770000  1.0
  O0+  O609  1  0.341000  0.255000  0.980000  1.0
  O0+  O610  1  0.409000  0.495000  0.980000  1.0
  O0+  O611  1  0.409000  0.255000  0.770000  1.0
  O0+  O612  1  0.659000  0.505000  0.230000  1.0
  O0+  O613  1  0.659000  0.745000  0.020000  1.0
  O0+  O614  1  0.591000  0.505000  0.020000  1.0
  O0+  O615  1  0.591000  0.745000  0.230000  1.0
  O0+  O616  1  0.835600  0.911900  0.478000  1.0
  O0+  O617  1  0.835600  0.838100  0.272000  1.0
  O0+  O618  1  0.914400  0.911900  0.272000  1.0
  O0+  O619  1  0.914400  0.838100  0.478000  1.0
  O0+  O620  1  0.164400  0.088100  0.522000  1.0
  O0+  O621  1  0.164400  0.161900  0.728000  1.0
  O0+  O622  1  0.085600  0.088100  0.728000  1.0
  O0+  O623  1  0.085600  0.161900  0.522000  1.0
  O0+  O624  1  0.835600  0.411900  0.978000  1.0
  O0+  O625  1  0.835600  0.338100  0.772000  1.0
  O0+  O626  1  0.914400  0.411900  0.772000  1.0
  O0+  O627  1  0.914400  0.338100  0.978000  1.0
  O0+  O628  1  0.164400  0.588100  0.022000  1.0
  O0+  O629  1  0.164400  0.661900  0.228000  1.0
  O0+  O630  1  0.085600  0.588100  0.228000  1.0
  O0+  O631  1  0.085600  0.661900  0.022000  1.0
  O0+  O632  1  0.335600  0.911900  0.978000  1.0
  O0+  O633  1  0.335600  0.838100  0.772000  1.0
  O0+  O634  1  0.414400  0.911900  0.772000  1.0
  O0+  O635  1  0.414400  0.838100  0.978000  1.0
  O0+  O636  1  0.664400  0.088100  0.022000  1.0
  O0+  O637  1  0.664400  0.161900  0.228000  1.0
  O0+  O638  1  0.585600  0.088100  0.228000  1.0
  O0+  O639  1  0.585600  0.161900  0.022000  1.0
  O0+  O640  1  0.335600  0.411900  0.478000  1.0
  O0+  O641  1  0.335600  0.338100  0.272000  1.0
  O0+  O642  1  0.414400  0.411900  0.272000  1.0
  O0+  O643  1  0.414400  0.338100  0.478000  1.0
  O0+  O644  1  0.664400  0.588100  0.522000  1.0
  O0+  O645  1  0.664400  0.661900  0.728000  1.0
  O0+  O646  1  0.585600  0.588100  0.728000  1.0
  O0+  O647  1  0.585600  0.661900  0.522000  1.0
