# generated using pymatgen
data_Li2Ti9Mn(O3F)5
_symmetry_space_group_name_H-M   'P 1'
_cell_length_a   9.96550574
_cell_length_b   5.03246667
_cell_length_c   7.25662822
_cell_angle_alpha   90.00000000
_cell_angle_beta   110.36240175
_cell_angle_gamma   90.00000000
_symmetry_Int_Tables_number   1
_chemical_formula_structural   Li2Ti9Mn(O3F)5
_chemical_formula_sum   'Li2 Ti9 Mn1 O15 F5'
_cell_volume   341.18605803
_cell_formula_units_Z   1
loop_
 _symmetry_equiv_pos_site_id
 _symmetry_equiv_pos_as_xyz
  1  'x, y, z'
loop_
 _atom_type_symbol
 _atom_type_oxidation_number
  Li0+  0.0
  Ti0+  0.0
  Mn0+  0.0
  O0+  0.0
  F0+  0.0
loop_
 _atom_site_type_symbol
 _atom_site_label
 _atom_site_symmetry_multiplicity
 _atom_site_fract_x
 _atom_site_fract_y
 _atom_site_fract_z
 _atom_site_occupancy
  Li0+  Li0  1  0.632173  0.495100  0.403200  0.25
  Ti0+  Ti1  1  0.632173  0.495100  0.403200  0.75
  Li0+  Li2  1  0.632173  0.504900  0.903200  0.25
  Ti0+  Ti3  1  0.632173  0.504900  0.903200  0.75
  Li0+  Li4  1  0.367827  0.504900  0.596800  0.25
  Ti0+  Ti5  1  0.367827  0.504900  0.596800  0.75
  Li0+  Li6  1  0.367827  0.495100  0.096800  0.25
  Ti0+  Ti7  1  0.367827  0.495100  0.096800  0.75
  Li0+  Li8  1  0.132173  0.995100  0.903200  0.25
  Ti0+  Ti9  1  0.132173  0.995100  0.903200  0.75
  Li0+  Li10  1  0.132173  0.004900  0.403200  0.25
  Ti0+  Ti11  1  0.132173  0.004900  0.403200  0.75
  Li0+  Li12  1  0.867827  0.004900  0.096800  0.25
  Ti0+  Ti13  1  0.867827  0.004900  0.096800  0.75
  Li0+  Li14  1  0.867827  0.995100  0.596800  0.25
  Ti0+  Ti15  1  0.867827  0.995100  0.596800  0.75
  Ti0+  Ti16  1  0.000000  0.500000  0.500000  0.75
  Mn0+  Mn17  1  0.000000  0.500000  0.500000  0.25
  Ti0+  Ti18  1  0.000000  0.500000  0.000000  0.75
  Mn0+  Mn19  1  0.000000  0.500000  0.000000  0.25
  Ti0+  Ti20  1  0.500000  0.000000  0.000000  0.75
  Mn0+  Mn21  1  0.500000  0.000000  0.000000  0.25
  Ti0+  Ti22  1  0.500000  0.000000  0.500000  0.75
  Mn0+  Mn23  1  0.500000  0.000000  0.500000  0.25
  O0+  O24  1  0.314640  0.840673  0.965520  0.75
  F0+  F25  1  0.314640  0.840673  0.965520  0.25
  O0+  O26  1  0.314640  0.159327  0.465520  0.75
  F0+  F27  1  0.314640  0.159327  0.465520  0.25
  O0+  O28  1  0.685360  0.159327  0.034480  0.75
  F0+  F29  1  0.685360  0.159327  0.034480  0.25
  O0+  O30  1  0.685360  0.840673  0.534480  0.75
  F0+  F31  1  0.685360  0.840673  0.534480  0.25
  O0+  O32  1  0.814640  0.340673  0.465520  0.75
  F0+  F33  1  0.814640  0.340673  0.465520  0.25
  O0+  O34  1  0.814640  0.659327  0.965520  0.75
  F0+  F35  1  0.814640  0.659327  0.965520  0.25
  O0+  O36  1  0.185360  0.659327  0.534480  0.75
  F0+  F37  1  0.185360  0.659327  0.534480  0.25
  O0+  O38  1  0.185360  0.340673  0.034480  0.75
  F0+  F39  1  0.185360  0.340673  0.034480  0.25
  O0+  O40  1  0.417160  0.332213  0.863780  0.75
  F0+  F41  1  0.417160  0.332213  0.863780  0.25
  O0+  O42  1  0.417160  0.667787  0.363780  0.75
  F0+  F43  1  0.417160  0.667787  0.363780  0.25
  O0+  O44  1  0.582840  0.667787  0.136220  0.75
  F0+  F45  1  0.582840  0.667787  0.136220  0.25
  O0+  O46  1  0.582840  0.332213  0.636220  0.75
  F0+  F47  1  0.582840  0.332213  0.636220  0.25
  O0+  O48  1  0.917160  0.832213  0.363780  0.75
  F0+  F49  1  0.917160  0.832213  0.363780  0.25
  O0+  O50  1  0.917160  0.167787  0.863780  0.75
  F0+  F51  1  0.917160  0.167787  0.863780  0.25
  O0+  O52  1  0.082840  0.167787  0.636220  0.75
  F0+  F53  1  0.082840  0.167787  0.636220  0.25
  O0+  O54  1  0.082840  0.832213  0.136220  0.75
  F0+  F55  1  0.082840  0.832213  0.136220  0.25
  O0+  O56  1  0.000000  0.302093  0.250000  0.75
  F0+  F57  1  0.000000  0.302093  0.250000  0.25
  O0+  O58  1  0.000000  0.697907  0.750000  0.75
  F0+  F59  1  0.000000  0.697907  0.750000  0.25
  O0+  O60  1  0.500000  0.802093  0.750000  0.75
  F0+  F61  1  0.500000  0.802093  0.750000  0.25
  O0+  O62  1  0.500000  0.197907  0.250000  0.75
  F0+  F63  1  0.500000  0.197907  0.250000  0.25
