# generated using pymatgen
data_Li3Ti6Mn3O16
_symmetry_space_group_name_H-M   'P 1'
_cell_length_a   8.34709882
_cell_length_b   8.73613333
_cell_length_c   8.34709882
_cell_angle_alpha   90.00000000
_cell_angle_beta   89.95469889
_cell_angle_gamma   90.00000000
_symmetry_Int_Tables_number   1
_chemical_formula_structural   Li3Ti6Mn3O16
_chemical_formula_sum   'Li6 Ti12 Mn6 O32'
_cell_volume   608.68167665
_cell_formula_units_Z   2
loop_
 _symmetry_equiv_pos_site_id
 _symmetry_equiv_pos_as_xyz
  1  'x, y, z'
loop_
 _atom_type_symbol
 _atom_type_oxidation_number
  Li0+  0.0
  Ti0+  0.0
  Mn0+  0.0
  O0+  0.0
loop_
 _atom_site_type_symbol
 _atom_site_label
 _atom_site_symmetry_multiplicity
 _atom_site_fract_x
 _atom_site_fract_y
 _atom_site_fract_z
 _atom_site_occupancy
  Li0+  Li0  1  0.875000  0.874733  0.875000  0.75
  Mn0+  Mn1  1  0.875000  0.874733  0.875000  0.25
  Li0+  Li2  1  0.125000  0.125267  0.125000  0.75
  Mn0+  Mn3  1  0.125000  0.125267  0.125000  0.25
  Li0+  Li4  1  0.875000  0.374733  0.375000  0.75
  Mn0+  Mn5  1  0.875000  0.374733  0.375000  0.25
  Li0+  Li6  1  0.125000  0.625267  0.625000  0.75
  Mn0+  Mn7  1  0.125000  0.625267  0.625000  0.25
  Li0+  Li8  1  0.375000  0.874733  0.375000  0.75
  Mn0+  Mn9  1  0.375000  0.874733  0.375000  0.25
  Li0+  Li10  1  0.625000  0.125267  0.625000  0.75
  Mn0+  Mn11  1  0.625000  0.125267  0.625000  0.25
  Li0+  Li12  1  0.375000  0.374733  0.875000  0.75
  Mn0+  Mn13  1  0.375000  0.374733  0.875000  0.25
  Li0+  Li14  1  0.625000  0.625267  0.125000  0.75
  Mn0+  Mn15  1  0.625000  0.625267  0.125000  0.25
  Ti0+  Ti16  1  0.500000  0.250000  0.250000  0.75
  Mn0+  Mn17  1  0.500000  0.250000  0.250000  0.25
  Ti0+  Ti18  1  0.250000  0.500000  0.250000  0.75
  Mn0+  Mn19  1  0.250000  0.500000  0.250000  0.25
  Ti0+  Ti20  1  0.250000  0.250000  0.500000  0.75
  Mn0+  Mn21  1  0.250000  0.250000  0.500000  0.25
  Ti0+  Ti22  1  0.500000  0.500000  0.500000  0.75
  Mn0+  Mn23  1  0.500000  0.500000  0.500000  0.25
  Ti0+  Ti24  1  0.500000  0.750000  0.750000  0.75
  Mn0+  Mn25  1  0.500000  0.750000  0.750000  0.25
  Ti0+  Ti26  1  0.750000  0.500000  0.750000  0.75
  Mn0+  Mn27  1  0.750000  0.500000  0.750000  0.25
  Ti0+  Ti28  1  0.750000  0.750000  0.500000  0.75
  Mn0+  Mn29  1  0.750000  0.750000  0.500000  0.25
  Ti0+  Ti30  1  0.250000  0.000000  0.750000  0.75
  Mn0+  Mn31  1  0.250000  0.000000  0.750000  0.25
  Ti0+  Ti32  1  0.250000  0.750000  0.000000  0.75
  Mn0+  Mn33  1  0.250000  0.750000  0.000000  0.25
  Ti0+  Ti34  1  0.500000  0.000000  0.000000  0.75
  Mn0+  Mn35  1  0.500000  0.000000  0.000000  0.25
  Ti0+  Ti36  1  0.750000  0.000000  0.250000  0.75
  Mn0+  Mn37  1  0.750000  0.000000  0.250000  0.25
  Ti0+  Ti38  1  0.750000  0.250000  0.000000  0.75
  Mn0+  Mn39  1  0.750000  0.250000  0.000000  0.25
  Ti0+  Ti40  1  0.000000  0.250000  0.750000  0.75
  Mn0+  Mn41  1  0.000000  0.250000  0.750000  0.25
  Ti0+  Ti42  1  0.000000  0.500000  0.000000  0.75
  Mn0+  Mn43  1  0.000000  0.500000  0.000000  0.25
  Ti0+  Ti44  1  0.000000  0.750000  0.250000  0.75
  Mn0+  Mn45  1  0.000000  0.750000  0.250000  0.25
  Ti0+  Ti46  1  0.000000  0.000000  0.500000  0.75
  Mn0+  Mn47  1  0.000000  0.000000  0.500000  0.25
  O0+  O48  1  0.736533  0.011000  0.013467  1.0
  O0+  O49  1  0.013667  0.739000  0.013667  1.0
  O0+  O50  1  0.013467  0.011000  0.736533  1.0
  O0+  O51  1  0.736333  0.739000  0.736333  1.0
  O0+  O52  1  0.263467  0.989000  0.986533  1.0
  O0+  O53  1  0.986333  0.261000  0.986333  1.0
  O0+  O54  1  0.986533  0.989000  0.263467  1.0
  O0+  O55  1  0.263667  0.261000  0.263667  1.0
  O0+  O56  1  0.736533  0.511000  0.513467  1.0
  O0+  O57  1  0.013667  0.239000  0.513667  1.0
  O0+  O58  1  0.013467  0.511000  0.236533  1.0
  O0+  O59  1  0.736333  0.239000  0.236333  1.0
  O0+  O60  1  0.263467  0.489000  0.486533  1.0
  O0+  O61  1  0.986333  0.761000  0.486333  1.0
  O0+  O62  1  0.986533  0.489000  0.763467  1.0
  O0+  O63  1  0.263667  0.761000  0.763667  1.0
  O0+  O64  1  0.236533  0.011000  0.513467  1.0
  O0+  O65  1  0.513667  0.739000  0.513667  1.0
  O0+  O66  1  0.513467  0.011000  0.236533  1.0
  O0+  O67  1  0.236333  0.739000  0.236333  1.0
  O0+  O68  1  0.763467  0.989000  0.486533  1.0
  O0+  O69  1  0.486333  0.261000  0.486333  1.0
  O0+  O70  1  0.486533  0.989000  0.763467  1.0
  O0+  O71  1  0.763667  0.261000  0.763667  1.0
  O0+  O72  1  0.236533  0.511000  0.013467  1.0
  O0+  O73  1  0.513667  0.239000  0.013667  1.0
  O0+  O74  1  0.513467  0.511000  0.736533  1.0
  O0+  O75  1  0.236333  0.239000  0.736333  1.0
  O0+  O76  1  0.763467  0.489000  0.986533  1.0
  O0+  O77  1  0.486333  0.761000  0.986333  1.0
  O0+  O78  1  0.486533  0.489000  0.263467  1.0
  O0+  O79  1  0.763667  0.761000  0.263667  1.0
