# generated using pymatgen
data_Li3Ti1.5Mn1.5F12
_symmetry_space_group_name_H-M   'P 1'
_cell_length_a   4.63320000
_cell_length_b   4.63320000
_cell_length_c   8.93030000
_cell_angle_alpha   90.00000000
_cell_angle_beta   90.00000000
_cell_angle_gamma   90.00000000
_symmetry_Int_Tables_number   1
_chemical_formula_structural   Li3Ti1.5Mn1.5F12
_chemical_formula_sum   'Li3 Ti1.5 Mn1.5 F12'
_cell_volume   191.70266217
_cell_formula_units_Z   1
loop_
 _symmetry_equiv_pos_site_id
 _symmetry_equiv_pos_as_xyz
  1  'x, y, z'
loop_
 _atom_type_symbol
 _atom_type_oxidation_number
  Li0+  0.0
  Ti0+  0.0
  Mn0+  0.0
  F0+  0.0
loop_
 _atom_site_type_symbol
 _atom_site_label
 _atom_site_symmetry_multiplicity
 _atom_site_fract_x
 _atom_site_fract_y
 _atom_site_fract_z
 _atom_site_occupancy
  Li0+  Li0  1  0.000000  0.000000  0.160700  0.75
  Mn0+  Mn1  1  0.000000  0.000000  0.160700  0.25
  Li0+  Li2  1  0.500000  0.500000  0.660700  0.75
  Mn0+  Mn3  1  0.500000  0.500000  0.660700  0.25
  Li0+  Li4  1  0.000000  0.000000  0.839300  0.75
  Mn0+  Mn5  1  0.000000  0.000000  0.839300  0.25
  Li0+  Li6  1  0.500000  0.500000  0.339300  0.75
  Mn0+  Mn7  1  0.500000  0.500000  0.339300  0.25
  Ti0+  Ti8  1  0.500000  0.500000  0.000000  0.75
  Mn0+  Mn9  1  0.500000  0.500000  0.000000  0.25
  Ti0+  Ti10  1  0.000000  0.000000  0.500000  0.75
  Mn0+  Mn11  1  0.000000  0.000000  0.500000  0.25
  F0+  F12  1  0.306600  0.693400  0.153090  1.0
  F0+  F13  1  0.693400  0.306600  0.153090  1.0
  F0+  F14  1  0.193400  0.193400  0.653090  1.0
  F0+  F15  1  0.806600  0.806600  0.653090  1.0
  F0+  F16  1  0.693400  0.306600  0.846910  1.0
  F0+  F17  1  0.306600  0.693400  0.846910  1.0
  F0+  F18  1  0.806600  0.806600  0.346910  1.0
  F0+  F19  1  0.193400  0.193400  0.346910  1.0
  F0+  F20  1  0.214300  0.214300  0.000000  1.0
  F0+  F21  1  0.785700  0.785700  0.000000  1.0
  F0+  F22  1  0.285700  0.714300  0.500000  1.0
  F0+  F23  1  0.714300  0.285700  0.500000  1.0
