# generated using pymatgen
data_Li3Ti
_symmetry_space_group_name_H-M   'P 1'
_cell_length_a   4.98631764
_cell_length_b   8.28125130
_cell_length_c   5.91886436
_cell_angle_alpha   90.00000000
_cell_angle_beta   90.00000000
_cell_angle_gamma   90.00000000
_symmetry_Int_Tables_number   1
_chemical_formula_structural   Li3Ti
_chemical_formula_sum   'Li9 Ti3'
_cell_volume   244.40736675
_cell_formula_units_Z   3
loop_
 _symmetry_equiv_pos_site_id
 _symmetry_equiv_pos_as_xyz
  1  'x, y, z'
loop_
 _atom_type_symbol
 _atom_type_oxidation_number
  Li0+  0.0
  Ti0+  0.0
loop_
 _atom_site_type_symbol
 _atom_site_label
 _atom_site_symmetry_multiplicity
 _atom_site_fract_x
 _atom_site_fract_y
 _atom_site_fract_z
 _atom_site_occupancy
  Li0+  Li0  1  0.000000  0.000000  0.750000  0.75
  Ti0+  Ti1  1  0.000000  0.000000  0.750000  0.25
  Li0+  Li2  1  0.000000  0.000000  0.250000  0.75
  Ti0+  Ti3  1  0.000000  0.000000  0.250000  0.25
  Li0+  Li4  1  0.500000  0.500000  0.250000  0.75
  Ti0+  Ti5  1  0.500000  0.500000  0.250000  0.25
  Li0+  Li6  1  0.500000  0.500000  0.750000  0.75
  Ti0+  Ti7  1  0.500000  0.500000  0.750000  0.25
  Li0+  Li8  1  0.527790  0.830002  0.555556  0.75
  Ti0+  Ti9  1  0.527790  0.830002  0.555556  0.25
  Li0+  Li10  1  0.472210  0.169998  0.444444  0.75
  Ti0+  Ti11  1  0.472210  0.169998  0.444444  0.25
  Li0+  Li12  1  0.472210  0.830002  0.055556  0.75
  Ti0+  Ti13  1  0.472210  0.830002  0.055556  0.25
  Li0+  Li14  1  0.527790  0.169998  -0.055556  0.75
  Ti0+  Ti15  1  0.527790  0.169998  -0.055556  0.25
  Li0+  Li16  1  0.027790  0.330002  0.055556  0.75
  Ti0+  Ti17  1  0.027790  0.330002  0.055556  0.25
  Li0+  Li18  1  0.972210  0.669998  -0.055556  0.75
  Ti0+  Ti19  1  0.972210  0.669998  -0.055556  0.25
  Li0+  Li20  1  0.972210  0.330002  0.555556  0.75
  Ti0+  Ti21  1  0.972210  0.330002  0.555556  0.25
  Li0+  Li22  1  0.027790  0.669998  0.444444  0.75
  Ti0+  Ti23  1  0.027790  0.669998  0.444444  0.25
