# generated using pymatgen
data_Li4Ti3MnO8
_symmetry_space_group_name_H-M   'P 1'
_cell_length_a   8.66440000
_cell_length_b   8.24735744
_cell_length_c   8.24735744
_cell_angle_alpha   90.00000000
_cell_angle_beta   90.00000000
_cell_angle_gamma   90.00000000
_symmetry_Int_Tables_number   1
_chemical_formula_structural   Li4Ti3MnO8
_chemical_formula_sum   'Li16 Ti12 Mn4 O32'
_cell_volume   589.34299791
_cell_formula_units_Z   4
loop_
 _symmetry_equiv_pos_site_id
 _symmetry_equiv_pos_as_xyz
  1  'x, y, z'
loop_
 _atom_type_symbol
 _atom_type_oxidation_number
  Li0+  0.0
  Ti0+  0.0
  Mn0+  0.0
  O0+  0.0
loop_
 _atom_site_type_symbol
 _atom_site_label
 _atom_site_symmetry_multiplicity
 _atom_site_fract_x
 _atom_site_fract_y
 _atom_site_fract_z
 _atom_site_occupancy
  Li0+  Li0  1  0.500000  0.250000  0.250000  1.0
  Li0+  Li1  1  0.250000  0.500000  0.250000  1.0
  Li0+  Li2  1  0.250000  0.250000  0.500000  1.0
  Li0+  Li3  1  0.500000  0.500000  0.500000  1.0
  Li0+  Li4  1  0.500000  0.750000  0.750000  1.0
  Li0+  Li5  1  0.750000  0.500000  0.750000  1.0
  Li0+  Li6  1  0.750000  0.750000  0.500000  1.0
  Li0+  Li7  1  0.250000  0.000000  0.750000  1.0
  Li0+  Li8  1  0.250000  0.750000  0.000000  1.0
  Li0+  Li9  1  0.500000  0.000000  0.000000  1.0
  Li0+  Li10  1  0.750000  0.000000  0.250000  1.0
  Li0+  Li11  1  0.750000  0.250000  0.000000  1.0
  Li0+  Li12  1  0.000000  0.250000  0.750000  1.0
  Li0+  Li13  1  0.000000  0.500000  0.000000  1.0
  Li0+  Li14  1  -0.000000  0.750000  0.250000  1.0
  Li0+  Li15  1  0.000000  0.000000  0.500000  1.0
  Ti0+  Ti16  1  0.000000  0.750000  0.750000  0.75
  Mn0+  Mn17  1  0.000000  0.750000  0.750000  0.25
  Ti0+  Ti18  1  0.750000  0.000000  0.750000  0.75
  Mn0+  Mn19  1  0.750000  0.000000  0.750000  0.25
  Ti0+  Ti20  1  0.750000  0.750000  0.000000  0.75
  Mn0+  Mn21  1  0.750000  0.750000  0.000000  0.25
  Ti0+  Ti22  1  0.000000  0.000000  0.000000  0.75
  Mn0+  Mn23  1  0.000000  0.000000  0.000000  0.25
  Ti0+  Ti24  1  0.000000  0.250000  0.250000  0.75
  Mn0+  Mn25  1  0.000000  0.250000  0.250000  0.25
  Ti0+  Ti26  1  0.250000  0.000000  0.250000  0.75
  Mn0+  Mn27  1  0.250000  0.000000  0.250000  0.25
  Ti0+  Ti28  1  0.250000  0.250000  0.000000  0.75
  Mn0+  Mn29  1  0.250000  0.250000  0.000000  0.25
  Ti0+  Ti30  1  0.750000  0.500000  0.250000  0.75
  Mn0+  Mn31  1  0.750000  0.500000  0.250000  0.25
  Ti0+  Ti32  1  0.750000  0.250000  0.500000  0.75
  Mn0+  Mn33  1  0.750000  0.250000  0.500000  0.25
  Ti0+  Ti34  1  0.000000  0.500000  0.500000  0.75
  Mn0+  Mn35  1  0.000000  0.500000  0.500000  0.25
  Ti0+  Ti36  1  0.250000  0.500000  0.750000  0.75
  Mn0+  Mn37  1  0.250000  0.500000  0.750000  0.25
  Ti0+  Ti38  1  0.250000  0.750000  0.500000  0.75
  Mn0+  Mn39  1  0.250000  0.750000  0.500000  0.25
  Ti0+  Ti40  1  0.500000  0.750000  0.250000  0.75
  Mn0+  Mn41  1  0.500000  0.750000  0.250000  0.25
  Ti0+  Ti42  1  0.500000  0.000000  0.500000  0.75
  Mn0+  Mn43  1  0.500000  0.000000  0.500000  0.25
  Ti0+  Ti44  1  0.500000  0.250000  0.750000  0.75
  Mn0+  Mn45  1  0.500000  0.250000  0.750000  0.25
  Ti0+  Ti46  1  0.500000  0.500000  0.000000  0.75
  Mn0+  Mn47  1  0.500000  0.500000  0.000000  0.25
  O0+  O48  1  0.752800  0.993700  0.993700  1.0
  O0+  O49  1  0.997200  0.756300  0.993700  1.0
  O0+  O50  1  0.997200  0.993700  0.756300  1.0
  O0+  O51  1  0.752800  0.756300  0.756300  1.0
  O0+  O52  1  0.247200  0.006300  0.006300  1.0
  O0+  O53  1  0.002800  0.243700  0.006300  1.0
  O0+  O54  1  0.002800  0.006300  0.243700  1.0
  O0+  O55  1  0.247200  0.243700  0.243700  1.0
  O0+  O56  1  0.752800  0.493700  0.493700  1.0
  O0+  O57  1  0.997200  0.256300  0.493700  1.0
  O0+  O58  1  0.997200  0.493700  0.256300  1.0
  O0+  O59  1  0.752800  0.256300  0.256300  1.0
  O0+  O60  1  0.247200  0.506300  0.506300  1.0
  O0+  O61  1  0.002800  0.743700  0.506300  1.0
  O0+  O62  1  0.002800  0.506300  0.743700  1.0
  O0+  O63  1  0.247200  0.743700  0.743700  1.0
  O0+  O64  1  0.252800  0.993700  0.493700  1.0
  O0+  O65  1  0.497200  0.756300  0.493700  1.0
  O0+  O66  1  0.497200  0.993700  0.256300  1.0
  O0+  O67  1  0.252800  0.756300  0.256300  1.0
  O0+  O68  1  0.747200  0.006300  0.506300  1.0
  O0+  O69  1  0.502800  0.243700  0.506300  1.0
  O0+  O70  1  0.502800  0.006300  0.743700  1.0
  O0+  O71  1  0.747200  0.243700  0.743700  1.0
  O0+  O72  1  0.252800  0.493700  0.993700  1.0
  O0+  O73  1  0.497200  0.256300  0.993700  1.0
  O0+  O74  1  0.497200  0.493700  0.756300  1.0
  O0+  O75  1  0.252800  0.256300  0.756300  1.0
  O0+  O76  1  0.747200  0.506300  0.006300  1.0
  O0+  O77  1  0.502800  0.743700  0.006300  1.0
  O0+  O78  1  0.502800  0.506300  0.243700  1.0
  O0+  O79  1  0.747200  0.743700  0.243700  1.0
