# generated using pymatgen
data_Li5Ti3(O3F)2
_symmetry_space_group_name_H-M   'P 1'
_cell_length_a   4.04300000
_cell_length_b   4.04300000
_cell_length_c   8.62800000
_cell_angle_alpha   90.00000000
_cell_angle_beta   90.00000000
_cell_angle_gamma   90.00000000
_symmetry_Int_Tables_number   1
_chemical_formula_structural   Li5Ti3(O3F)2
_chemical_formula_sum   'Li5 Ti3 O6 F2'
_cell_volume   141.03198517
_cell_formula_units_Z   1
loop_
 _symmetry_equiv_pos_site_id
 _symmetry_equiv_pos_as_xyz
  1  'x, y, z'
loop_
 _atom_type_symbol
 _atom_type_oxidation_number
  Li0+  0.0
  Ti0+  0.0
  O0+  0.0
  F0+  0.0
loop_
 _atom_site_type_symbol
 _atom_site_label
 _atom_site_symmetry_multiplicity
 _atom_site_fract_x
 _atom_site_fract_y
 _atom_site_fract_z
 _atom_site_occupancy
  Li0+  Li0  1  0.000000  0.750000  0.625000  1.0
  Li0+  Li1  1  0.000000  0.250000  0.375000  1.0
  Li0+  Li2  1  0.500000  0.250000  0.125000  1.0
  Li0+  Li3  1  0.500000  0.750000  0.875000  1.0
  Li0+  Li4  1  0.000000  0.750000  0.125000  0.25
  Ti0+  Ti5  1  0.000000  0.750000  0.125000  0.75
  Li0+  Li6  1  0.000000  0.250000  0.875000  0.25
  Ti0+  Ti7  1  0.000000  0.250000  0.875000  0.75
  Li0+  Li8  1  0.500000  0.250000  0.625000  0.25
  Ti0+  Ti9  1  0.500000  0.250000  0.625000  0.75
  Li0+  Li10  1  0.500000  0.750000  0.375000  0.25
  Ti0+  Ti11  1  0.500000  0.750000  0.375000  0.75
  O0+  O12  1  0.000000  0.750000  0.888800  0.75
  F0+  F13  1  0.000000  0.750000  0.888800  0.25
  O0+  O14  1  0.000000  0.250000  0.638800  0.75
  F0+  F15  1  0.000000  0.250000  0.638800  0.25
  O0+  O16  1  0.000000  0.250000  0.111200  0.75
  F0+  F17  1  0.000000  0.250000  0.111200  0.25
  O0+  O18  1  0.000000  0.750000  0.361200  0.75
  F0+  F19  1  0.000000  0.750000  0.361200  0.25
  O0+  O20  1  0.500000  0.250000  0.388800  0.75
  F0+  F21  1  0.500000  0.250000  0.388800  0.25
  O0+  O22  1  0.500000  0.750000  0.138800  0.75
  F0+  F23  1  0.500000  0.750000  0.138800  0.25
  O0+  O24  1  0.500000  0.750000  0.611200  0.75
  F0+  F25  1  0.500000  0.750000  0.611200  0.25
  O0+  O26  1  0.500000  0.250000  0.861200  0.75
  F0+  F27  1  0.500000  0.250000  0.861200  0.25
