# generated using pymatgen
data_Li5Ti3(O3F)2
_symmetry_space_group_name_H-M   'P 1'
_cell_length_a   8.37560000
_cell_length_b   8.37560000
_cell_length_c   8.37560000
_cell_angle_alpha   90.00000000
_cell_angle_beta   90.00000000
_cell_angle_gamma   90.00000000
_symmetry_Int_Tables_number   1
_chemical_formula_structural   Li5Ti3(O3F)2
_chemical_formula_sum   'Li20 Ti12 O24 F8'
_cell_volume   587.55399655
_cell_formula_units_Z   4
loop_
 _symmetry_equiv_pos_site_id
 _symmetry_equiv_pos_as_xyz
  1  'x, y, z'
loop_
 _atom_type_symbol
 _atom_type_oxidation_number
  Li0+  0.0
  Ti0+  0.0
  O0+  0.0
  F0+  0.0
loop_
 _atom_site_type_symbol
 _atom_site_label
 _atom_site_symmetry_multiplicity
 _atom_site_fract_x
 _atom_site_fract_y
 _atom_site_fract_z
 _atom_site_occupancy
  Li0+  Li0  1  0.500000  0.250000  0.250000  0.75
  F0+  F1  1  0.500000  0.250000  0.250000  0.25
  Li0+  Li2  1  0.250000  0.500000  0.250000  0.75
  F0+  F3  1  0.250000  0.500000  0.250000  0.25
  Li0+  Li4  1  0.250000  0.250000  0.500000  0.75
  F0+  F5  1  0.250000  0.250000  0.500000  0.25
  Li0+  Li6  1  0.500000  0.500000  0.500000  0.75
  F0+  F7  1  0.500000  0.500000  0.500000  0.25
  Li0+  Li8  1  0.500000  0.750000  0.750000  0.75
  F0+  F9  1  0.500000  0.750000  0.750000  0.25
  Li0+  Li10  1  0.750000  0.500000  0.750000  0.75
  F0+  F11  1  0.750000  0.500000  0.750000  0.25
  Li0+  Li12  1  0.750000  0.750000  0.500000  0.75
  F0+  F13  1  0.750000  0.750000  0.500000  0.25
  Li0+  Li14  1  0.250000  0.000000  0.750000  0.75
  F0+  F15  1  0.250000  0.000000  0.750000  0.25
  Li0+  Li16  1  0.250000  0.750000  0.000000  0.75
  F0+  F17  1  0.250000  0.750000  0.000000  0.25
  Li0+  Li18  1  0.500000  0.000000  0.000000  0.75
  F0+  F19  1  0.500000  0.000000  0.000000  0.25
  Li0+  Li20  1  0.750000  0.000000  0.250000  0.75
  F0+  F21  1  0.750000  0.000000  0.250000  0.25
  Li0+  Li22  1  0.750000  0.250000  0.000000  0.75
  F0+  F23  1  0.750000  0.250000  0.000000  0.25
  Li0+  Li24  1  0.000000  0.250000  0.750000  0.75
  F0+  F25  1  0.000000  0.250000  0.750000  0.25
  Li0+  Li26  1  0.000000  0.500000  0.000000  0.75
  F0+  F27  1  0.000000  0.500000  0.000000  0.25
  Li0+  Li28  1  0.000000  0.750000  0.250000  0.75
  F0+  F29  1  0.000000  0.750000  0.250000  0.25
  Li0+  Li30  1  0.000000  0.000000  0.500000  0.75
  F0+  F31  1  0.000000  0.000000  0.500000  0.25
  Ti0+  Ti32  1  0.000000  0.750000  0.750000  0.75
  F0+  F33  1  0.000000  0.750000  0.750000  0.25
  Ti0+  Ti34  1  0.750000  0.000000  0.750000  0.75
  F0+  F35  1  0.750000  0.000000  0.750000  0.25
  Ti0+  Ti36  1  0.750000  0.750000  0.000000  0.75
  F0+  F37  1  0.750000  0.750000  0.000000  0.25
  Ti0+  Ti38  1  0.000000  0.000000  0.000000  0.75
  F0+  F39  1  0.000000  0.000000  0.000000  0.25
  Ti0+  Ti40  1  0.000000  0.250000  0.250000  0.75
  F0+  F41  1  0.000000  0.250000  0.250000  0.25
  Ti0+  Ti42  1  0.250000  0.000000  0.250000  0.75
  F0+  F43  1  0.250000  0.000000  0.250000  0.25
  Ti0+  Ti44  1  0.250000  0.250000  0.000000  0.75
  F0+  F45  1  0.250000  0.250000  0.000000  0.25
  Ti0+  Ti46  1  0.750000  0.500000  0.250000  0.75
  F0+  F47  1  0.750000  0.500000  0.250000  0.25
  Ti0+  Ti48  1  0.750000  0.250000  0.500000  0.75
  F0+  F49  1  0.750000  0.250000  0.500000  0.25
  Ti0+  Ti50  1  0.000000  0.500000  0.500000  0.75
  F0+  F51  1  0.000000  0.500000  0.500000  0.25
  Ti0+  Ti52  1  0.250000  0.500000  0.750000  0.75
  F0+  F53  1  0.250000  0.500000  0.750000  0.25
  Ti0+  Ti54  1  0.250000  0.750000  0.500000  0.75
  F0+  F55  1  0.250000  0.750000  0.500000  0.25
  Ti0+  Ti56  1  0.500000  0.750000  0.250000  0.75
  F0+  F57  1  0.500000  0.750000  0.250000  0.25
  Ti0+  Ti58  1  0.500000  0.000000  0.500000  0.75
  F0+  F59  1  0.500000  0.000000  0.500000  0.25
  Ti0+  Ti60  1  0.500000  0.250000  0.750000  0.75
  F0+  F61  1  0.500000  0.250000  0.750000  0.25
  Ti0+  Ti62  1  0.500000  0.500000  0.000000  0.75
  F0+  F63  1  0.500000  0.500000  0.000000  0.25
  Li0+  Li64  1  0.755200  0.994800  0.994800  0.25
  O0+  O65  1  0.755200  0.994800  0.994800  0.75
  Li0+  Li66  1  0.994800  0.755200  0.994800  0.25
  O0+  O67  1  0.994800  0.755200  0.994800  0.75
  Li0+  Li68  1  0.994800  0.994800  0.755200  0.25
  O0+  O69  1  0.994800  0.994800  0.755200  0.75
  Li0+  Li70  1  0.755200  0.755200  0.755200  0.25
  O0+  O71  1  0.755200  0.755200  0.755200  0.75
  Li0+  Li72  1  0.244800  0.005200  0.005200  0.25
  O0+  O73  1  0.244800  0.005200  0.005200  0.75
  Li0+  Li74  1  0.005200  0.244800  0.005200  0.25
  O0+  O75  1  0.005200  0.244800  0.005200  0.75
  Li0+  Li76  1  0.005200  0.005200  0.244800  0.25
  O0+  O77  1  0.005200  0.005200  0.244800  0.75
  Li0+  Li78  1  0.244800  0.244800  0.244800  0.25
  O0+  O79  1  0.244800  0.244800  0.244800  0.75
  Li0+  Li80  1  0.755200  0.494800  0.494800  0.25
  O0+  O81  1  0.755200  0.494800  0.494800  0.75
  Li0+  Li82  1  0.994800  0.255200  0.494800  0.25
  O0+  O83  1  0.994800  0.255200  0.494800  0.75
  Li0+  Li84  1  0.994800  0.494800  0.255200  0.25
  O0+  O85  1  0.994800  0.494800  0.255200  0.75
  Li0+  Li86  1  0.755200  0.255200  0.255200  0.25
  O0+  O87  1  0.755200  0.255200  0.255200  0.75
  Li0+  Li88  1  0.244800  0.505200  0.505200  0.25
  O0+  O89  1  0.244800  0.505200  0.505200  0.75
  Li0+  Li90  1  0.005200  0.744800  0.505200  0.25
  O0+  O91  1  0.005200  0.744800  0.505200  0.75
  Li0+  Li92  1  0.005200  0.505200  0.744800  0.25
  O0+  O93  1  0.005200  0.505200  0.744800  0.75
  Li0+  Li94  1  0.244800  0.744800  0.744800  0.25
  O0+  O95  1  0.244800  0.744800  0.744800  0.75
  Li0+  Li96  1  0.255200  0.994800  0.494800  0.25
  O0+  O97  1  0.255200  0.994800  0.494800  0.75
  Li0+  Li98  1  0.494800  0.755200  0.494800  0.25
  O0+  O99  1  0.494800  0.755200  0.494800  0.75
  Li0+  Li100  1  0.494800  0.994800  0.255200  0.25
  O0+  O101  1  0.494800  0.994800  0.255200  0.75
  Li0+  Li102  1  0.255200  0.755200  0.255200  0.25
  O0+  O103  1  0.255200  0.755200  0.255200  0.75
  Li0+  Li104  1  0.744800  0.005200  0.505200  0.25
  O0+  O105  1  0.744800  0.005200  0.505200  0.75
  Li0+  Li106  1  0.505200  0.244800  0.505200  0.25
  O0+  O107  1  0.505200  0.244800  0.505200  0.75
  Li0+  Li108  1  0.505200  0.005200  0.744800  0.25
  O0+  O109  1  0.505200  0.005200  0.744800  0.75
  Li0+  Li110  1  0.744800  0.244800  0.744800  0.25
  O0+  O111  1  0.744800  0.244800  0.744800  0.75
  Li0+  Li112  1  0.255200  0.494800  0.994800  0.25
  O0+  O113  1  0.255200  0.494800  0.994800  0.75
  Li0+  Li114  1  0.494800  0.255200  0.994800  0.25
  O0+  O115  1  0.494800  0.255200  0.994800  0.75
  Li0+  Li116  1  0.494800  0.494800  0.755200  0.25
  O0+  O117  1  0.494800  0.494800  0.755200  0.75
  Li0+  Li118  1  0.255200  0.255200  0.755200  0.25
  O0+  O119  1  0.255200  0.255200  0.755200  0.75
  Li0+  Li120  1  0.744800  0.505200  0.005200  0.25
  O0+  O121  1  0.744800  0.505200  0.005200  0.75
  Li0+  Li122  1  0.505200  0.744800  0.005200  0.25
  O0+  O123  1  0.505200  0.744800  0.005200  0.75
  Li0+  Li124  1  0.505200  0.505200  0.244800  0.25
  O0+  O125  1  0.505200  0.505200  0.244800  0.75
  Li0+  Li126  1  0.744800  0.744800  0.244800  0.25
  O0+  O127  1  0.744800  0.744800  0.244800  0.75
