# generated using pymatgen
data_Li6Ti3Mn3(OF3)5
_symmetry_space_group_name_H-M   'P 1'
_cell_length_a   9.95752181
_cell_length_b   4.94800000
_cell_length_c   7.40800000
_cell_angle_alpha   90.00000000
_cell_angle_beta   111.34992955
_cell_angle_gamma   90.00000000
_symmetry_Int_Tables_number   1
_chemical_formula_structural   Li6Ti3Mn3(OF3)5
_chemical_formula_sum   'Li6 Ti3 Mn3 O5 F15'
_cell_volume   339.94307010
_cell_formula_units_Z   1
loop_
 _symmetry_equiv_pos_site_id
 _symmetry_equiv_pos_as_xyz
  1  'x, y, z'
loop_
 _atom_type_symbol
 _atom_type_oxidation_number
  Li0+  0.0
  Ti0+  0.0
  Mn0+  0.0
  O0+  0.0
  F0+  0.0
loop_
 _atom_site_type_symbol
 _atom_site_label
 _atom_site_symmetry_multiplicity
 _atom_site_fract_x
 _atom_site_fract_y
 _atom_site_fract_z
 _atom_site_occupancy
  Li0+  Li0  1  0.888500  0.259200  0.139200  0.75
  Ti0+  Ti1  1  0.888500  0.259200  0.139200  0.25
  Li0+  Li2  1  0.611500  0.259200  0.860800  0.75
  Ti0+  Ti3  1  0.611500  0.259200  0.860800  0.25
  Li0+  Li4  1  0.111500  0.740800  0.860800  0.75
  Ti0+  Ti5  1  0.111500  0.740800  0.860800  0.25
  Li0+  Li6  1  0.388500  0.740800  0.139200  0.75
  Ti0+  Ti7  1  0.388500  0.740800  0.139200  0.25
  Li0+  Li8  1  0.611500  0.240800  0.360800  0.75
  Ti0+  Ti9  1  0.611500  0.240800  0.360800  0.25
  Li0+  Li10  1  0.888500  0.240800  0.639200  0.75
  Ti0+  Ti11  1  0.888500  0.240800  0.639200  0.25
  Li0+  Li12  1  0.388500  0.759200  0.639200  0.75
  Ti0+  Ti13  1  0.388500  0.759200  0.639200  0.25
  Li0+  Li14  1  0.111500  0.759200  0.360800  0.75
  Ti0+  Ti15  1  0.111500  0.759200  0.360800  0.25
  Ti0+  Ti16  1  0.750000  0.750000  0.250000  0.25
  Mn0+  Mn17  1  0.750000  0.750000  0.250000  0.75
  Ti0+  Ti18  1  0.750000  0.750000  0.750000  0.25
  Mn0+  Mn19  1  0.750000  0.750000  0.750000  0.75
  Ti0+  Ti20  1  0.250000  0.250000  0.750000  0.25
  Mn0+  Mn21  1  0.250000  0.250000  0.750000  0.75
  Ti0+  Ti22  1  0.250000  0.250000  0.250000  0.25
  Mn0+  Mn23  1  0.250000  0.250000  0.250000  0.75
  O0+  O24  1  0.927200  0.598400  0.281600  0.25
  F0+  F25  1  0.927200  0.598400  0.281600  0.75
  O0+  O26  1  0.572800  0.598400  0.718400  0.25
  F0+  F27  1  0.572800  0.598400  0.718400  0.75
  O0+  O28  1  0.072800  0.401600  0.718400  0.25
  F0+  F29  1  0.072800  0.401600  0.718400  0.75
  O0+  O30  1  0.427200  0.401600  0.281600  0.25
  F0+  F31  1  0.427200  0.401600  0.281600  0.75
  O0+  O32  1  0.572800  0.901600  0.218400  0.25
  F0+  F33  1  0.572800  0.901600  0.218400  0.75
  O0+  O34  1  0.927200  0.901600  0.781600  0.25
  F0+  F35  1  0.927200  0.901600  0.781600  0.75
  O0+  O36  1  0.427200  0.098400  0.781600  0.25
  F0+  F37  1  0.427200  0.098400  0.781600  0.75
  O0+  O38  1  0.072800  0.098400  0.218400  0.25
  F0+  F39  1  0.072800  0.098400  0.218400  0.75
  O0+  O40  1  0.836600  0.057500  0.380800  0.25
  F0+  F41  1  0.836600  0.057500  0.380800  0.75
  O0+  O42  1  0.663400  0.057500  0.619200  0.25
  F0+  F43  1  0.663400  0.057500  0.619200  0.75
  O0+  O44  1  0.163400  0.942500  0.619200  0.25
  F0+  F45  1  0.163400  0.942500  0.619200  0.75
  O0+  O46  1  0.336600  0.942500  0.380800  0.25
  F0+  F47  1  0.336600  0.942500  0.380800  0.75
  O0+  O48  1  0.663400  0.442500  0.119200  0.25
  F0+  F49  1  0.663400  0.442500  0.119200  0.75
  O0+  O50  1  0.836600  0.442500  0.880800  0.25
  F0+  F51  1  0.836600  0.442500  0.880800  0.75
  O0+  O52  1  0.336600  0.557500  0.880800  0.25
  F0+  F53  1  0.336600  0.557500  0.880800  0.75
  O0+  O54  1  0.163400  0.557500  0.119200  0.25
  F0+  F55  1  0.163400  0.557500  0.119200  0.75
  O0+  O56  1  0.750000  0.540200  0.500000  0.25
  F0+  F57  1  0.750000  0.540200  0.500000  0.75
  O0+  O58  1  0.250000  0.459800  0.500000  0.25
  F0+  F59  1  0.250000  0.459800  0.500000  0.75
  O0+  O60  1  0.750000  0.959800  0.000000  0.25
  F0+  F61  1  0.750000  0.959800  0.000000  0.75
  O0+  O62  1  0.250000  0.040200  0.000000  0.25
  F0+  F63  1  0.250000  0.040200  0.000000  0.75
