# generated using pymatgen
data_LiMn3F8
_symmetry_space_group_name_H-M   'P 1'
_cell_length_a   5.57692779
_cell_length_b   4.71786667
_cell_length_c   5.76591326
_cell_angle_alpha   90.00000000
_cell_angle_beta   112.68067567
_cell_angle_gamma   90.00000000
_symmetry_Int_Tables_number   1
_chemical_formula_structural   LiMn3F8
_chemical_formula_sum   'Li1 Mn3 F8'
_cell_volume   139.97624483
_cell_formula_units_Z   1
loop_
 _symmetry_equiv_pos_site_id
 _symmetry_equiv_pos_as_xyz
  1  'x, y, z'
loop_
 _atom_type_symbol
 _atom_type_oxidation_number
  Li0+  0.0
  Mn0+  0.0
  F0+  0.0
loop_
 _atom_site_type_symbol
 _atom_site_label
 _atom_site_symmetry_multiplicity
 _atom_site_fract_x
 _atom_site_fract_y
 _atom_site_fract_z
 _atom_site_occupancy
  Li0+  Li0  1  0.500000  0.000000  0.500000  0.5
  Mn0+  Mn1  1  0.500000  0.000000  0.500000  0.5
  Li0+  Li2  1  0.500000  0.500000  0.000000  0.5
  Mn0+  Mn3  1  0.500000  0.500000  0.000000  0.5
  Mn0+  Mn4  1  0.000000  0.500000  0.500000  1.0
  Mn0+  Mn5  1  0.000000  0.000000  0.000000  1.0
  F0+  F6  1  0.850160  0.710920  0.144373  1.0
  F0+  F7  1  0.149840  0.210920  0.355627  1.0
  F0+  F8  1  0.149840  0.289080  0.855627  1.0
  F0+  F9  1  0.850160  0.789080  0.644373  1.0
  F0+  F10  1  0.331360  0.813613  0.143173  1.0
  F0+  F11  1  0.668640  0.313613  0.356827  1.0
  F0+  F12  1  0.668640  0.186387  0.856827  1.0
  F0+  F13  1  0.331360  0.686387  0.643173  1.0
