# generated using pymatgen
data_LiTiMnO4
_symmetry_space_group_name_H-M   'P 1'
_cell_length_a   24.91555333
_cell_length_b   24.94306667
_cell_length_c   8.26463333
_cell_angle_alpha   90.00000000
_cell_angle_beta   90.00000000
_cell_angle_gamma   90.00000000
_symmetry_Int_Tables_number   1
_chemical_formula_structural   LiTiMnO4
_chemical_formula_sum   'Li72 Ti72 Mn72 O288'
_cell_volume   5136.22422177
_cell_formula_units_Z   72
loop_
 _symmetry_equiv_pos_site_id
 _symmetry_equiv_pos_as_xyz
  1  'x, y, z'
loop_
 _atom_type_symbol
 _atom_type_oxidation_number
  Li0+  0.0
  Ti0+  0.0
  Mn0+  0.0
  O0+  0.0
loop_
 _atom_site_type_symbol
 _atom_site_label
 _atom_site_symmetry_multiplicity
 _atom_site_fract_x
 _atom_site_fract_y
 _atom_site_fract_z
 _atom_site_occupancy
  Li0+  Li0  1  0.875000  0.875000  0.875000  1.0
  Li0+  Li1  1  0.125000  0.125000  0.125000  1.0
  Li0+  Li2  1  0.875000  0.375000  0.375000  1.0
  Li0+  Li3  1  0.125000  0.625000  0.625000  1.0
  Li0+  Li4  1  0.375000  0.875000  0.375000  1.0
  Li0+  Li5  1  0.625000  0.125000  0.625000  1.0
  Li0+  Li6  1  0.375000  0.375000  0.875000  1.0
  Li0+  Li7  1  0.625000  0.625000  0.125000  1.0
  Li0+  Li8  1  0.125000  0.959978  0.625000  1.0
  Li0+  Li9  1  0.125000  0.790022  0.125000  1.0
  Li0+  Li10  1  0.625000  0.959978  0.125000  1.0
  Li0+  Li11  1  0.625000  0.790022  0.625000  1.0
  Li0+  Li12  1  0.875000  0.040022  0.375000  1.0
  Li0+  Li13  1  0.875000  0.209978  0.875000  1.0
  Li0+  Li14  1  0.375000  0.040022  0.875000  1.0
  Li0+  Li15  1  0.375000  0.209978  0.375000  1.0
  Li0+  Li16  1  0.125000  0.459978  0.125000  1.0
  Li0+  Li17  1  0.125000  0.290022  0.625000  1.0
  Li0+  Li18  1  0.625000  0.459978  0.625000  1.0
  Li0+  Li19  1  0.625000  0.290022  0.125000  1.0
  Li0+  Li20  1  0.875000  0.540022  0.875000  1.0
  Li0+  Li21  1  0.875000  0.709978  0.375000  1.0
  Li0+  Li22  1  0.375000  0.540022  0.375000  1.0
  Li0+  Li23  1  0.375000  0.709978  0.875000  1.0
  Li0+  Li24  1  0.958244  0.125000  0.625000  1.0
  Li0+  Li25  1  0.958244  0.625000  0.125000  1.0
  Li0+  Li26  1  0.791756  0.125000  0.125000  1.0
  Li0+  Li27  1  0.791756  0.625000  0.625000  1.0
  Li0+  Li28  1  0.041756  0.875000  0.375000  1.0
  Li0+  Li29  1  0.041756  0.375000  0.875000  1.0
  Li0+  Li30  1  0.208244  0.875000  0.875000  1.0
  Li0+  Li31  1  0.208244  0.375000  0.375000  1.0
  Li0+  Li32  1  0.458244  0.125000  0.125000  1.0
  Li0+  Li33  1  0.458244  0.625000  0.625000  1.0
  Li0+  Li34  1  0.291756  0.125000  0.625000  1.0
  Li0+  Li35  1  0.291756  0.625000  0.125000  1.0
  Li0+  Li36  1  0.541756  0.875000  0.875000  1.0
  Li0+  Li37  1  0.541756  0.375000  0.375000  1.0
  Li0+  Li38  1  0.708244  0.875000  0.375000  1.0
  Li0+  Li39  1  0.708244  0.375000  0.875000  1.0
  Li0+  Li40  1  0.037622  0.044022  0.871667  1.0
  Li0+  Li41  1  0.037622  0.705978  0.878333  1.0
  Li0+  Li42  1  0.712378  0.044022  0.878333  1.0
  Li0+  Li43  1  0.712378  0.705978  0.871667  1.0
  Li0+  Li44  1  0.962378  0.955978  0.128333  1.0
  Li0+  Li45  1  0.962378  0.294022  0.121667  1.0
  Li0+  Li46  1  0.287622  0.955978  0.121667  1.0
  Li0+  Li47  1  0.287622  0.294022  0.128333  1.0
  Li0+  Li48  1  0.037622  0.544022  0.371667  1.0
  Li0+  Li49  1  0.037622  0.205978  0.378333  1.0
  Li0+  Li50  1  0.712378  0.544022  0.378333  1.0
  Li0+  Li51  1  0.712378  0.205978  0.371667  1.0
  Li0+  Li52  1  0.962378  0.455978  0.628333  1.0
  Li0+  Li53  1  0.962378  0.794022  0.621667  1.0
  Li0+  Li54  1  0.287622  0.455978  0.621667  1.0
  Li0+  Li55  1  0.287622  0.794022  0.628333  1.0
  Li0+  Li56  1  0.537622  0.044022  0.371667  1.0
  Li0+  Li57  1  0.537622  0.705978  0.378333  1.0
  Li0+  Li58  1  0.212378  0.044022  0.378333  1.0
  Li0+  Li59  1  0.212378  0.705978  0.371667  1.0
  Li0+  Li60  1  0.462378  0.955978  0.628333  1.0
  Li0+  Li61  1  0.462378  0.294022  0.621667  1.0
  Li0+  Li62  1  0.787622  0.955978  0.621667  1.0
  Li0+  Li63  1  0.787622  0.294022  0.628333  1.0
  Li0+  Li64  1  0.537622  0.544022  0.871667  1.0
  Li0+  Li65  1  0.537622  0.205978  0.878333  1.0
  Li0+  Li66  1  0.212378  0.544022  0.878333  1.0
  Li0+  Li67  1  0.212378  0.205978  0.871667  1.0
  Li0+  Li68  1  0.462378  0.455978  0.128333  1.0
  Li0+  Li69  1  0.462378  0.794022  0.121667  1.0
  Li0+  Li70  1  0.787622  0.455978  0.121667  1.0
  Li0+  Li71  1  0.787622  0.794022  0.128333  1.0
  Ti0+  Ti72  1  0.000000  0.000000  0.500000  0.5
  Mn0+  Mn73  1  0.000000  0.000000  0.500000  0.5
  Ti0+  Ti74  1  0.000000  0.750000  0.250000  0.5
  Mn0+  Mn75  1  0.000000  0.750000  0.250000  0.5
  Ti0+  Ti76  1  0.750000  0.000000  0.250000  0.5
  Mn0+  Mn77  1  0.750000  0.000000  0.250000  0.5
  Ti0+  Ti78  1  0.750000  0.750000  0.500000  0.5
  Mn0+  Mn79  1  0.750000  0.750000  0.500000  0.5
  Ti0+  Ti80  1  0.000000  0.250000  0.750000  0.5
  Mn0+  Mn81  1  0.000000  0.250000  0.750000  0.5
  Ti0+  Ti82  1  0.250000  0.000000  0.750000  0.5
  Mn0+  Mn83  1  0.250000  0.000000  0.750000  0.5
  Ti0+  Ti84  1  0.250000  0.250000  0.500000  0.5
  Mn0+  Mn85  1  0.250000  0.250000  0.500000  0.5
  Ti0+  Ti86  1  0.000000  0.500000  0.000000  0.5
  Mn0+  Mn87  1  0.000000  0.500000  0.000000  0.5
  Ti0+  Ti88  1  0.750000  0.500000  0.750000  0.5
  Mn0+  Mn89  1  0.750000  0.500000  0.750000  0.5
  Ti0+  Ti90  1  0.750000  0.250000  0.000000  0.5
  Mn0+  Mn91  1  0.750000  0.250000  0.000000  0.5
  Ti0+  Ti92  1  0.250000  0.500000  0.250000  0.5
  Mn0+  Mn93  1  0.250000  0.500000  0.250000  0.5
  Ti0+  Ti94  1  0.250000  0.750000  0.000000  0.5
  Mn0+  Mn95  1  0.250000  0.750000  0.000000  0.5
  Ti0+  Ti96  1  0.500000  0.000000  0.000000  0.5
  Mn0+  Mn97  1  0.500000  0.000000  0.000000  0.5
  Ti0+  Ti98  1  0.500000  0.750000  0.750000  0.5
  Mn0+  Mn99  1  0.500000  0.750000  0.750000  0.5
  Ti0+  Ti100  1  0.500000  0.250000  0.250000  0.5
  Mn0+  Mn101  1  0.500000  0.250000  0.250000  0.5
  Ti0+  Ti102  1  0.500000  0.500000  0.500000  0.5
  Mn0+  Mn103  1  0.500000  0.500000  0.500000  0.5
  Ti0+  Ti104  1  0.832111  0.834778  0.501667  0.5
  Mn0+  Mn105  1  0.832111  0.834778  0.501667  0.5
  Ti0+  Ti106  1  0.832111  0.915222  0.248333  0.5
  Mn0+  Mn107  1  0.832111  0.915222  0.248333  0.5
  Ti0+  Ti108  1  0.917889  0.834778  0.248333  0.5
  Mn0+  Mn109  1  0.917889  0.834778  0.248333  0.5
  Ti0+  Ti110  1  0.917889  0.915222  0.501667  0.5
  Mn0+  Mn111  1  0.917889  0.915222  0.501667  0.5
  Ti0+  Ti112  1  0.167889  0.165222  0.498333  0.5
  Mn0+  Mn113  1  0.167889  0.165222  0.498333  0.5
  Ti0+  Ti114  1  0.167889  0.084778  0.751667  0.5
  Mn0+  Mn115  1  0.167889  0.084778  0.751667  0.5
  Ti0+  Ti116  1  0.082111  0.165222  0.751667  0.5
  Mn0+  Mn117  1  0.082111  0.165222  0.751667  0.5
  Ti0+  Ti118  1  0.082111  0.084778  0.498333  0.5
  Mn0+  Mn119  1  0.082111  0.084778  0.498333  0.5
  Ti0+  Ti120  1  0.832111  0.334778  0.001667  0.5
  Mn0+  Mn121  1  0.832111  0.334778  0.001667  0.5
  Ti0+  Ti122  1  0.832111  0.415222  0.748333  0.5
  Mn0+  Mn123  1  0.832111  0.415222  0.748333  0.5
  Ti0+  Ti124  1  0.917889  0.334778  0.748333  0.5
  Mn0+  Mn125  1  0.917889  0.334778  0.748333  0.5
  Ti0+  Ti126  1  0.917889  0.415222  0.001667  0.5
  Mn0+  Mn127  1  0.917889  0.415222  0.001667  0.5
  Ti0+  Ti128  1  0.167889  0.665222  0.998333  0.5
  Mn0+  Mn129  1  0.167889  0.665222  0.998333  0.5
  Ti0+  Ti130  1  0.167889  0.584778  0.251667  0.5
  Mn0+  Mn131  1  0.167889  0.584778  0.251667  0.5
  Ti0+  Ti132  1  0.082111  0.665222  0.251667  0.5
  Mn0+  Mn133  1  0.082111  0.665222  0.251667  0.5
  Ti0+  Ti134  1  0.082111  0.584778  0.998333  0.5
  Mn0+  Mn135  1  0.082111  0.584778  0.998333  0.5
  Ti0+  Ti136  1  0.332111  0.834778  0.001667  0.5
  Mn0+  Mn137  1  0.332111  0.834778  0.001667  0.5
  Ti0+  Ti138  1  0.332111  0.915222  0.748333  0.5
  Mn0+  Mn139  1  0.332111  0.915222  0.748333  0.5
  Ti0+  Ti140  1  0.417889  0.834778  0.748333  0.5
  Mn0+  Mn141  1  0.417889  0.834778  0.748333  0.5
  Ti0+  Ti142  1  0.417889  0.915222  0.001667  0.5
  Mn0+  Mn143  1  0.417889  0.915222  0.001667  0.5
  Ti0+  Ti144  1  0.667889  0.165222  0.998333  0.5
  Mn0+  Mn145  1  0.667889  0.165222  0.998333  0.5
  Ti0+  Ti146  1  0.667889  0.084778  0.251667  0.5
  Mn0+  Mn147  1  0.667889  0.084778  0.251667  0.5
  Ti0+  Ti148  1  0.582111  0.165222  0.251667  0.5
  Mn0+  Mn149  1  0.582111  0.165222  0.251667  0.5
  Ti0+  Ti150  1  0.582111  0.084778  0.998333  0.5
  Mn0+  Mn151  1  0.582111  0.084778  0.998333  0.5
  Ti0+  Ti152  1  0.332111  0.334778  0.501667  0.5
  Mn0+  Mn153  1  0.332111  0.334778  0.501667  0.5
  Ti0+  Ti154  1  0.332111  0.415222  0.248333  0.5
  Mn0+  Mn155  1  0.332111  0.415222  0.248333  0.5
  Ti0+  Ti156  1  0.417889  0.334778  0.248333  0.5
  Mn0+  Mn157  1  0.417889  0.334778  0.248333  0.5
  Ti0+  Ti158  1  0.417889  0.415222  0.501667  0.5
  Mn0+  Mn159  1  0.417889  0.415222  0.501667  0.5
  Ti0+  Ti160  1  0.667889  0.665222  0.498333  0.5
  Mn0+  Mn161  1  0.667889  0.665222  0.498333  0.5
  Ti0+  Ti162  1  0.667889  0.584778  0.751667  0.5
  Mn0+  Mn163  1  0.667889  0.584778  0.751667  0.5
  Ti0+  Ti164  1  0.582111  0.665222  0.751667  0.5
  Mn0+  Mn165  1  0.582111  0.665222  0.751667  0.5
  Ti0+  Ti166  1  0.582111  0.584778  0.498333  0.5
  Mn0+  Mn167  1  0.582111  0.584778  0.498333  0.5
  Ti0+  Ti168  1  0.834378  0.081578  0.748533  0.5
  Mn0+  Mn169  1  0.834378  0.081578  0.748533  0.5
  Ti0+  Ti170  1  0.834378  0.668422  0.001467  0.5
  Mn0+  Mn171  1  0.834378  0.668422  0.001467  0.5
  Ti0+  Ti172  1  0.915622  0.081578  0.001467  0.5
  Mn0+  Mn173  1  0.915622  0.081578  0.001467  0.5
  Ti0+  Ti174  1  0.915622  0.668422  0.748533  0.5
  Mn0+  Mn175  1  0.915622  0.668422  0.748533  0.5
  Ti0+  Ti176  1  0.165622  0.918422  0.251467  0.5
  Mn0+  Mn177  1  0.165622  0.918422  0.251467  0.5
  Ti0+  Ti178  1  0.165622  0.331578  0.998533  0.5
  Mn0+  Mn179  1  0.165622  0.331578  0.998533  0.5
  Ti0+  Ti180  1  0.084378  0.918422  0.998533  0.5
  Mn0+  Mn181  1  0.084378  0.918422  0.998533  0.5
  Ti0+  Ti182  1  0.084378  0.331578  0.251467  0.5
  Mn0+  Mn183  1  0.084378  0.331578  0.251467  0.5
  Ti0+  Ti184  1  0.834378  0.581578  0.248533  0.5
  Mn0+  Mn185  1  0.834378  0.581578  0.248533  0.5
  Ti0+  Ti186  1  0.834378  0.168422  0.501467  0.5
  Mn0+  Mn187  1  0.834378  0.168422  0.501467  0.5
  Ti0+  Ti188  1  0.915622  0.581578  0.501467  0.5
  Mn0+  Mn189  1  0.915622  0.581578  0.501467  0.5
  Ti0+  Ti190  1  0.915622  0.168422  0.248533  0.5
  Mn0+  Mn191  1  0.915622  0.168422  0.248533  0.5
  Ti0+  Ti192  1  0.165622  0.418422  0.751467  0.5
  Mn0+  Mn193  1  0.165622  0.418422  0.751467  0.5
  Ti0+  Ti194  1  0.165622  0.831578  0.498533  0.5
  Mn0+  Mn195  1  0.165622  0.831578  0.498533  0.5
  Ti0+  Ti196  1  0.084378  0.418422  0.498533  0.5
  Mn0+  Mn197  1  0.084378  0.418422  0.498533  0.5
  Ti0+  Ti198  1  0.084378  0.831578  0.751467  0.5
  Mn0+  Mn199  1  0.084378  0.831578  0.751467  0.5
  Ti0+  Ti200  1  0.334378  0.081578  0.248533  0.5
  Mn0+  Mn201  1  0.334378  0.081578  0.248533  0.5
  Ti0+  Ti202  1  0.334378  0.668422  0.501467  0.5
  Mn0+  Mn203  1  0.334378  0.668422  0.501467  0.5
  Ti0+  Ti204  1  0.415622  0.081578  0.501467  0.5
  Mn0+  Mn205  1  0.415622  0.081578  0.501467  0.5
  Ti0+  Ti206  1  0.415622  0.668422  0.248533  0.5
  Mn0+  Mn207  1  0.415622  0.668422  0.248533  0.5
  Ti0+  Ti208  1  0.665622  0.918422  0.751467  0.5
  Mn0+  Mn209  1  0.665622  0.918422  0.751467  0.5
  Ti0+  Ti210  1  0.665622  0.331578  0.498533  0.5
  Mn0+  Mn211  1  0.665622  0.331578  0.498533  0.5
  Ti0+  Ti212  1  0.584378  0.918422  0.498533  0.5
  Mn0+  Mn213  1  0.584378  0.918422  0.498533  0.5
  Ti0+  Ti214  1  0.584378  0.331578  0.751467  0.5
  Mn0+  Mn215  1  0.584378  0.331578  0.751467  0.5
  Ti0+  Ti216  1  0.334378  0.581578  0.748533  0.5
  Mn0+  Mn217  1  0.334378  0.581578  0.748533  0.5
  Ti0+  Ti218  1  0.334378  0.168422  0.001467  0.5
  Mn0+  Mn219  1  0.334378  0.168422  0.001467  0.5
  Ti0+  Ti220  1  0.415622  0.581578  0.001467  0.5
  Mn0+  Mn221  1  0.415622  0.581578  0.001467  0.5
  Ti0+  Ti222  1  0.415622  0.168422  0.748533  0.5
  Mn0+  Mn223  1  0.415622  0.168422  0.748533  0.5
  Ti0+  Ti224  1  0.665622  0.418422  0.251467  0.5
  Mn0+  Mn225  1  0.665622  0.418422  0.251467  0.5
  Ti0+  Ti226  1  0.665622  0.831578  0.998533  0.5
  Mn0+  Mn227  1  0.665622  0.831578  0.998533  0.5
  Ti0+  Ti228  1  0.584378  0.418422  0.998533  0.5
  Mn0+  Mn229  1  0.584378  0.418422  0.998533  0.5
  Ti0+  Ti230  1  0.584378  0.831578  0.251467  0.5
  Mn0+  Mn231  1  0.584378  0.831578  0.251467  0.5
  Ti0+  Ti232  1  0.001827  0.917262  0.754200  0.5
  Mn0+  Mn233  1  0.001827  0.917262  0.754200  0.5
  Ti0+  Ti234  1  0.001827  0.832738  0.995800  0.5
  Mn0+  Mn235  1  0.001827  0.832738  0.995800  0.5
  Ti0+  Ti236  1  0.748173  0.917262  0.995800  0.5
  Mn0+  Mn237  1  0.748173  0.917262  0.995800  0.5
  Ti0+  Ti238  1  0.748173  0.832738  0.754200  0.5
  Mn0+  Mn239  1  0.748173  0.832738  0.754200  0.5
  Ti0+  Ti240  1  0.998173  0.082738  0.245800  0.5
  Mn0+  Mn241  1  0.998173  0.082738  0.245800  0.5
  Ti0+  Ti242  1  0.998173  0.167262  0.004200  0.5
  Mn0+  Mn243  1  0.998173  0.167262  0.004200  0.5
  Ti0+  Ti244  1  0.251827  0.082738  0.004200  0.5
  Mn0+  Mn245  1  0.251827  0.082738  0.004200  0.5
  Ti0+  Ti246  1  0.251827  0.167262  0.245800  0.5
  Mn0+  Mn247  1  0.251827  0.167262  0.245800  0.5
  Ti0+  Ti248  1  0.001827  0.417262  0.254200  0.5
  Mn0+  Mn249  1  0.001827  0.417262  0.254200  0.5
  Ti0+  Ti250  1  0.001827  0.332738  0.495800  0.5
  Mn0+  Mn251  1  0.001827  0.332738  0.495800  0.5
  Ti0+  Ti252  1  0.748173  0.417262  0.495800  0.5
  Mn0+  Mn253  1  0.748173  0.417262  0.495800  0.5
  Ti0+  Ti254  1  0.748173  0.332738  0.254200  0.5
  Mn0+  Mn255  1  0.748173  0.332738  0.254200  0.5
  Ti0+  Ti256  1  0.998173  0.582738  0.745800  0.5
  Mn0+  Mn257  1  0.998173  0.582738  0.745800  0.5
  Ti0+  Ti258  1  0.998173  0.667262  0.504200  0.5
  Mn0+  Mn259  1  0.998173  0.667262  0.504200  0.5
  Ti0+  Ti260  1  0.251827  0.582738  0.504200  0.5
  Mn0+  Mn261  1  0.251827  0.582738  0.504200  0.5
  Ti0+  Ti262  1  0.251827  0.667262  0.745800  0.5
  Mn0+  Mn263  1  0.251827  0.667262  0.745800  0.5
  Ti0+  Ti264  1  0.501827  0.917262  0.254200  0.5
  Mn0+  Mn265  1  0.501827  0.917262  0.254200  0.5
  Ti0+  Ti266  1  0.501827  0.832738  0.495800  0.5
  Mn0+  Mn267  1  0.501827  0.832738  0.495800  0.5
  Ti0+  Ti268  1  0.248173  0.917262  0.495800  0.5
  Mn0+  Mn269  1  0.248173  0.917262  0.495800  0.5
  Ti0+  Ti270  1  0.248173  0.832738  0.254200  0.5
  Mn0+  Mn271  1  0.248173  0.832738  0.254200  0.5
  Ti0+  Ti272  1  0.498173  0.082738  0.745800  0.5
  Mn0+  Mn273  1  0.498173  0.082738  0.745800  0.5
  Ti0+  Ti274  1  0.498173  0.167262  0.504200  0.5
  Mn0+  Mn275  1  0.498173  0.167262  0.504200  0.5
  Ti0+  Ti276  1  0.751827  0.082738  0.504200  0.5
  Mn0+  Mn277  1  0.751827  0.082738  0.504200  0.5
  Ti0+  Ti278  1  0.751827  0.167262  0.745800  0.5
  Mn0+  Mn279  1  0.751827  0.167262  0.745800  0.5
  Ti0+  Ti280  1  0.501827  0.417262  0.754200  0.5
  Mn0+  Mn281  1  0.501827  0.417262  0.754200  0.5
  Ti0+  Ti282  1  0.501827  0.332738  0.995800  0.5
  Mn0+  Mn283  1  0.501827  0.332738  0.995800  0.5
  Ti0+  Ti284  1  0.248173  0.417262  0.995800  0.5
  Mn0+  Mn285  1  0.248173  0.417262  0.995800  0.5
  Ti0+  Ti286  1  0.248173  0.332738  0.754200  0.5
  Mn0+  Mn287  1  0.248173  0.332738  0.754200  0.5
  Ti0+  Ti288  1  0.498173  0.582738  0.245800  0.5
  Mn0+  Mn289  1  0.498173  0.582738  0.245800  0.5
  Ti0+  Ti290  1  0.498173  0.667262  0.004200  0.5
  Mn0+  Mn291  1  0.498173  0.667262  0.004200  0.5
  Ti0+  Ti292  1  0.751827  0.582738  0.004200  0.5
  Mn0+  Mn293  1  0.751827  0.582738  0.004200  0.5
  Ti0+  Ti294  1  0.751827  0.667262  0.245800  0.5
  Mn0+  Mn295  1  0.751827  0.667262  0.245800  0.5
  Ti0+  Ti296  1  0.916369  0.996560  0.751867  0.5
  Mn0+  Mn297  1  0.916369  0.996560  0.751867  0.5
  Ti0+  Ti298  1  0.916369  0.753440  0.998133  0.5
  Mn0+  Mn299  1  0.916369  0.753440  0.998133  0.5
  Ti0+  Ti300  1  0.833631  0.996560  0.998133  0.5
  Mn0+  Mn301  1  0.833631  0.996560  0.998133  0.5
  Ti0+  Ti302  1  0.833631  0.753440  0.751867  0.5
  Mn0+  Mn303  1  0.833631  0.753440  0.751867  0.5
  Ti0+  Ti304  1  0.083631  0.003440  0.248133  0.5
  Mn0+  Mn305  1  0.083631  0.003440  0.248133  0.5
  Ti0+  Ti306  1  0.083631  0.246560  0.001867  0.5
  Mn0+  Mn307  1  0.083631  0.246560  0.001867  0.5
  Ti0+  Ti308  1  0.166369  0.003440  0.001867  0.5
  Mn0+  Mn309  1  0.166369  0.003440  0.001867  0.5
  Ti0+  Ti310  1  0.166369  0.246560  0.248133  0.5
  Mn0+  Mn311  1  0.166369  0.246560  0.248133  0.5
  Ti0+  Ti312  1  0.916369  0.496560  0.251867  0.5
  Mn0+  Mn313  1  0.916369  0.496560  0.251867  0.5
  Ti0+  Ti314  1  0.916369  0.253440  0.498133  0.5
  Mn0+  Mn315  1  0.916369  0.253440  0.498133  0.5
  Ti0+  Ti316  1  0.833631  0.496560  0.498133  0.5
  Mn0+  Mn317  1  0.833631  0.496560  0.498133  0.5
  Ti0+  Ti318  1  0.833631  0.253440  0.251867  0.5
  Mn0+  Mn319  1  0.833631  0.253440  0.251867  0.5
  Ti0+  Ti320  1  0.083631  0.503440  0.748133  0.5
  Mn0+  Mn321  1  0.083631  0.503440  0.748133  0.5
  Ti0+  Ti322  1  0.083631  0.746560  0.501867  0.5
  Mn0+  Mn323  1  0.083631  0.746560  0.501867  0.5
  Ti0+  Ti324  1  0.166369  0.503440  0.501867  0.5
  Mn0+  Mn325  1  0.166369  0.503440  0.501867  0.5
  Ti0+  Ti326  1  0.166369  0.746560  0.748133  0.5
  Mn0+  Mn327  1  0.166369  0.746560  0.748133  0.5
  Ti0+  Ti328  1  0.416369  0.996560  0.251867  0.5
  Mn0+  Mn329  1  0.416369  0.996560  0.251867  0.5
  Ti0+  Ti330  1  0.416369  0.753440  0.498133  0.5
  Mn0+  Mn331  1  0.416369  0.753440  0.498133  0.5
  Ti0+  Ti332  1  0.333631  0.996560  0.498133  0.5
  Mn0+  Mn333  1  0.333631  0.996560  0.498133  0.5
  Ti0+  Ti334  1  0.333631  0.753440  0.251867  0.5
  Mn0+  Mn335  1  0.333631  0.753440  0.251867  0.5
  Ti0+  Ti336  1  0.583631  0.003440  0.748133  0.5
  Mn0+  Mn337  1  0.583631  0.003440  0.748133  0.5
  Ti0+  Ti338  1  0.583631  0.246560  0.501867  0.5
  Mn0+  Mn339  1  0.583631  0.246560  0.501867  0.5
  Ti0+  Ti340  1  0.666369  0.003440  0.501867  0.5
  Mn0+  Mn341  1  0.666369  0.003440  0.501867  0.5
  Ti0+  Ti342  1  0.666369  0.246560  0.748133  0.5
  Mn0+  Mn343  1  0.666369  0.246560  0.748133  0.5
  Ti0+  Ti344  1  0.416369  0.496560  0.751867  0.5
  Mn0+  Mn345  1  0.416369  0.496560  0.751867  0.5
  Ti0+  Ti346  1  0.416369  0.253440  0.998133  0.5
  Mn0+  Mn347  1  0.416369  0.253440  0.998133  0.5
  Ti0+  Ti348  1  0.333631  0.496560  0.998133  0.5
  Mn0+  Mn349  1  0.333631  0.496560  0.998133  0.5
  Ti0+  Ti350  1  0.333631  0.253440  0.751867  0.5
  Mn0+  Mn351  1  0.333631  0.253440  0.751867  0.5
  Ti0+  Ti352  1  0.583631  0.503440  0.248133  0.5
  Mn0+  Mn353  1  0.583631  0.503440  0.248133  0.5
  Ti0+  Ti354  1  0.583631  0.746560  0.001867  0.5
  Mn0+  Mn355  1  0.583631  0.746560  0.001867  0.5
  Ti0+  Ti356  1  0.666369  0.503440  0.001867  0.5
  Mn0+  Mn357  1  0.666369  0.503440  0.001867  0.5
  Ti0+  Ti358  1  0.666369  0.746560  0.248133  0.5
  Mn0+  Mn359  1  0.666369  0.746560  0.248133  0.5
  O0+  O360  1  0.923378  0.919444  0.740400  1.0
  O0+  O361  1  0.923378  0.830556  0.009600  1.0
  O0+  O362  1  0.826622  0.919444  0.009600  1.0
  O0+  O363  1  0.826622  0.830556  0.740400  1.0
  O0+  O364  1  0.076622  0.080556  0.259600  1.0
  O0+  O365  1  0.076622  0.169444  0.990400  1.0
  O0+  O366  1  0.173378  0.080556  0.990400  1.0
  O0+  O367  1  0.173378  0.169444  0.259600  1.0
  O0+  O368  1  0.923378  0.419444  0.240400  1.0
  O0+  O369  1  0.923378  0.330556  0.509600  1.0
  O0+  O370  1  0.826622  0.419444  0.509600  1.0
  O0+  O371  1  0.826622  0.330556  0.240400  1.0
  O0+  O372  1  0.076622  0.580556  0.759600  1.0
  O0+  O373  1  0.076622  0.669444  0.490400  1.0
  O0+  O374  1  0.173378  0.580556  0.490400  1.0
  O0+  O375  1  0.173378  0.669444  0.759600  1.0
  O0+  O376  1  0.423378  0.919444  0.240400  1.0
  O0+  O377  1  0.423378  0.830556  0.509600  1.0
  O0+  O378  1  0.326622  0.919444  0.509600  1.0
  O0+  O379  1  0.326622  0.830556  0.240400  1.0
  O0+  O380  1  0.576622  0.080556  0.759600  1.0
  O0+  O381  1  0.576622  0.169444  0.490400  1.0
  O0+  O382  1  0.673378  0.080556  0.490400  1.0
  O0+  O383  1  0.673378  0.169444  0.759600  1.0
  O0+  O384  1  0.423378  0.419444  0.740400  1.0
  O0+  O385  1  0.423378  0.330556  0.009600  1.0
  O0+  O386  1  0.326622  0.419444  0.009600  1.0
  O0+  O387  1  0.326622  0.330556  0.740400  1.0
  O0+  O388  1  0.576622  0.580556  0.259600  1.0
  O0+  O389  1  0.576622  0.669444  0.990400  1.0
  O0+  O390  1  0.673378  0.580556  0.990400  1.0
  O0+  O391  1  0.673378  0.669444  0.259600  1.0
  O0+  O392  1  0.827089  0.757556  0.504933  1.0
  O0+  O393  1  0.827089  0.992444  0.245067  1.0
  O0+  O394  1  0.922911  0.757556  0.245067  1.0
  O0+  O395  1  0.922911  0.992444  0.504933  1.0
  O0+  O396  1  0.172911  0.242444  0.495067  1.0
  O0+  O397  1  0.172911  0.007556  0.754933  1.0
  O0+  O398  1  0.077089  0.242444  0.754933  1.0
  O0+  O399  1  0.077089  0.007556  0.495067  1.0
  O0+  O400  1  0.827089  0.257556  0.004933  1.0
  O0+  O401  1  0.827089  0.492444  0.745067  1.0
  O0+  O402  1  0.922911  0.257556  0.745067  1.0
  O0+  O403  1  0.922911  0.492444  0.004933  1.0
  O0+  O404  1  0.172911  0.742444  0.995067  1.0
  O0+  O405  1  0.172911  0.507556  0.254933  1.0
  O0+  O406  1  0.077089  0.742444  0.254933  1.0
  O0+  O407  1  0.077089  0.507556  0.995067  1.0
  O0+  O408  1  0.327089  0.757556  0.004933  1.0
  O0+  O409  1  0.327089  0.992444  0.745067  1.0
  O0+  O410  1  0.422911  0.757556  0.745067  1.0
  O0+  O411  1  0.422911  0.992444  0.004933  1.0
  O0+  O412  1  0.672911  0.242444  0.995067  1.0
  O0+  O413  1  0.672911  0.007556  0.254933  1.0
  O0+  O414  1  0.577089  0.242444  0.254933  1.0
  O0+  O415  1  0.577089  0.007556  0.995067  1.0
  O0+  O416  1  0.327089  0.257556  0.504933  1.0
  O0+  O417  1  0.327089  0.492444  0.245067  1.0
  O0+  O418  1  0.422911  0.257556  0.245067  1.0
  O0+  O419  1  0.422911  0.492444  0.504933  1.0
  O0+  O420  1  0.672911  0.742444  0.495067  1.0
  O0+  O421  1  0.672911  0.507556  0.754933  1.0
  O0+  O422  1  0.577089  0.742444  0.754933  1.0
  O0+  O423  1  0.577089  0.507556  0.495067  1.0
  O0+  O424  1  0.828489  0.082600  0.512933  1.0
  O0+  O425  1  0.828489  0.667400  0.237067  1.0
  O0+  O426  1  0.921511  0.082600  0.237067  1.0
  O0+  O427  1  0.921511  0.667400  0.512933  1.0
  O0+  O428  1  0.171511  0.917400  0.487067  1.0
  O0+  O429  1  0.171511  0.332600  0.762933  1.0
  O0+  O430  1  0.078489  0.917400  0.762933  1.0
  O0+  O431  1  0.078489  0.332600  0.487067  1.0
  O0+  O432  1  0.828489  0.582600  0.012933  1.0
  O0+  O433  1  0.828489  0.167400  0.737067  1.0
  O0+  O434  1  0.921511  0.582600  0.737067  1.0
  O0+  O435  1  0.921511  0.167400  0.012933  1.0
  O0+  O436  1  0.171511  0.417400  0.987067  1.0
  O0+  O437  1  0.171511  0.832600  0.262933  1.0
  O0+  O438  1  0.078489  0.417400  0.262933  1.0
  O0+  O439  1  0.078489  0.832600  0.987067  1.0
  O0+  O440  1  0.328489  0.082600  0.012933  1.0
  O0+  O441  1  0.328489  0.667400  0.737067  1.0
  O0+  O442  1  0.421511  0.082600  0.737067  1.0
  O0+  O443  1  0.421511  0.667400  0.012933  1.0
  O0+  O444  1  0.671511  0.917400  0.987067  1.0
  O0+  O445  1  0.671511  0.332600  0.262933  1.0
  O0+  O446  1  0.578489  0.917400  0.262933  1.0
  O0+  O447  1  0.578489  0.332600  0.987067  1.0
  O0+  O448  1  0.328489  0.582600  0.512933  1.0
  O0+  O449  1  0.328489  0.167400  0.237067  1.0
  O0+  O450  1  0.421511  0.582600  0.237067  1.0
  O0+  O451  1  0.421511  0.167400  0.512933  1.0
  O0+  O452  1  0.671511  0.417400  0.487067  1.0
  O0+  O453  1  0.671511  0.832600  0.762933  1.0
  O0+  O454  1  0.578489  0.417400  0.762933  1.0
  O0+  O455  1  0.578489  0.832600  0.487067  1.0
  O0+  O456  1  0.002244  0.922511  0.524267  1.0
  O0+  O457  1  0.002244  0.827489  0.225733  1.0
  O0+  O458  1  0.747756  0.922511  0.225733  1.0
  O0+  O459  1  0.747756  0.827489  0.524267  1.0
  O0+  O460  1  0.997756  0.077489  0.475733  1.0
  O0+  O461  1  0.997756  0.172511  0.774267  1.0
  O0+  O462  1  0.252244  0.077489  0.774267  1.0
  O0+  O463  1  0.252244  0.172511  0.475733  1.0
  O0+  O464  1  0.002244  0.422511  0.024267  1.0
  O0+  O465  1  0.002244  0.327489  0.725733  1.0
  O0+  O466  1  0.747756  0.422511  0.725733  1.0
  O0+  O467  1  0.747756  0.327489  0.024267  1.0
  O0+  O468  1  0.997756  0.577489  0.975733  1.0
  O0+  O469  1  0.997756  0.672511  0.274267  1.0
  O0+  O470  1  0.252244  0.577489  0.274267  1.0
  O0+  O471  1  0.252244  0.672511  0.975733  1.0
  O0+  O472  1  0.502244  0.922511  0.024267  1.0
  O0+  O473  1  0.502244  0.827489  0.725733  1.0
  O0+  O474  1  0.247756  0.922511  0.725733  1.0
  O0+  O475  1  0.247756  0.827489  0.024267  1.0
  O0+  O476  1  0.497756  0.077489  0.975733  1.0
  O0+  O477  1  0.497756  0.172511  0.274267  1.0
  O0+  O478  1  0.752244  0.077489  0.274267  1.0
  O0+  O479  1  0.752244  0.172511  0.975733  1.0
  O0+  O480  1  0.502244  0.422511  0.524267  1.0
  O0+  O481  1  0.502244  0.327489  0.225733  1.0
  O0+  O482  1  0.247756  0.422511  0.225733  1.0
  O0+  O483  1  0.247756  0.327489  0.524267  1.0
  O0+  O484  1  0.497756  0.577489  0.475733  1.0
  O0+  O485  1  0.497756  0.672511  0.774267  1.0
  O0+  O486  1  0.752244  0.577489  0.774267  1.0
  O0+  O487  1  0.752244  0.672511  0.475733  1.0
  O0+  O488  1  0.754889  0.756489  0.747733  1.0
  O0+  O489  1  0.754889  0.993511  1.002267  1.0
  O0+  O490  1  0.995111  0.756489  1.002267  1.0
  O0+  O491  1  0.995111  0.993511  0.747733  1.0
  O0+  O492  1  0.245111  0.243511  0.252267  1.0
  O0+  O493  1  0.245111  0.006489  -0.002267  1.0
  O0+  O494  1  0.004889  0.243511  -0.002267  1.0
  O0+  O495  1  0.004889  0.006489  0.252267  1.0
  O0+  O496  1  0.754889  0.256489  0.247733  1.0
  O0+  O497  1  0.754889  0.493511  0.502267  1.0
  O0+  O498  1  0.995111  0.256489  0.502267  1.0
  O0+  O499  1  0.995111  0.493511  0.247733  1.0
  O0+  O500  1  0.245111  0.743511  0.752267  1.0
  O0+  O501  1  0.245111  0.506489  0.497733  1.0
  O0+  O502  1  0.004889  0.743511  0.497733  1.0
  O0+  O503  1  0.004889  0.506489  0.752267  1.0
  O0+  O504  1  0.254889  0.756489  0.247733  1.0
  O0+  O505  1  0.254889  0.993511  0.502267  1.0
  O0+  O506  1  0.495111  0.756489  0.502267  1.0
  O0+  O507  1  0.495111  0.993511  0.247733  1.0
  O0+  O508  1  0.745111  0.243511  0.752267  1.0
  O0+  O509  1  0.745111  0.006489  0.497733  1.0
  O0+  O510  1  0.504889  0.243511  0.497733  1.0
  O0+  O511  1  0.504889  0.006489  0.752267  1.0
  O0+  O512  1  0.254889  0.256489  0.747733  1.0
  O0+  O513  1  0.254889  0.493511  1.002267  1.0
  O0+  O514  1  0.495111  0.256489  1.002267  1.0
  O0+  O515  1  0.495111  0.493511  0.747733  1.0
  O0+  O516  1  0.745111  0.743511  0.252267  1.0
  O0+  O517  1  0.745111  0.506489  -0.002267  1.0
  O0+  O518  1  0.504889  0.743511  -0.002267  1.0
  O0+  O519  1  0.504889  0.506489  0.252267  1.0
  O0+  O520  1  0.004289  0.839067  0.764267  1.0
  O0+  O521  1  0.004289  0.910933  0.985733  1.0
  O0+  O522  1  0.745711  0.839067  0.985733  1.0
  O0+  O523  1  0.745711  0.910933  0.764267  1.0
  O0+  O524  1  0.995711  0.160933  0.235733  1.0
  O0+  O525  1  0.995711  0.089067  0.014267  1.0
  O0+  O526  1  0.254289  0.160933  0.014267  1.0
  O0+  O527  1  0.254289  0.089067  0.235733  1.0
  O0+  O528  1  0.004289  0.339067  0.264267  1.0
  O0+  O529  1  0.004289  0.410933  0.485733  1.0
  O0+  O530  1  0.745711  0.339067  0.485733  1.0
  O0+  O531  1  0.745711  0.410933  0.264267  1.0
  O0+  O532  1  0.995711  0.660933  0.735733  1.0
  O0+  O533  1  0.995711  0.589067  0.514267  1.0
  O0+  O534  1  0.254289  0.660933  0.514267  1.0
  O0+  O535  1  0.254289  0.589067  0.735733  1.0
  O0+  O536  1  0.504289  0.839067  0.264267  1.0
  O0+  O537  1  0.504289  0.910933  0.485733  1.0
  O0+  O538  1  0.245711  0.839067  0.485733  1.0
  O0+  O539  1  0.245711  0.910933  0.264267  1.0
  O0+  O540  1  0.495711  0.160933  0.735733  1.0
  O0+  O541  1  0.495711  0.089067  0.514267  1.0
  O0+  O542  1  0.754289  0.160933  0.514267  1.0
  O0+  O543  1  0.754289  0.089067  0.735733  1.0
  O0+  O544  1  0.504289  0.339067  0.764267  1.0
  O0+  O545  1  0.504289  0.410933  0.985733  1.0
  O0+  O546  1  0.245711  0.339067  0.985733  1.0
  O0+  O547  1  0.245711  0.410933  0.764267  1.0
  O0+  O548  1  0.495711  0.660933  0.235733  1.0
  O0+  O549  1  0.495711  0.589067  0.014267  1.0
  O0+  O550  1  0.754289  0.660933  0.014267  1.0
  O0+  O551  1  0.754289  0.589067  0.235733  1.0
  O0+  O552  1  0.913333  0.075289  0.763600  1.0
  O0+  O553  1  0.913333  0.674711  0.986400  1.0
  O0+  O554  1  0.836667  0.075289  0.986400  1.0
  O0+  O555  1  0.836667  0.674711  0.763600  1.0
  O0+  O556  1  0.086667  0.924711  0.236400  1.0
  O0+  O557  1  0.086667  0.325289  0.013600  1.0
  O0+  O558  1  0.163333  0.924711  0.013600  1.0
  O0+  O559  1  0.163333  0.325289  0.236400  1.0
  O0+  O560  1  0.913333  0.575289  0.263600  1.0
  O0+  O561  1  0.913333  0.174711  0.486400  1.0
  O0+  O562  1  0.836667  0.575289  0.486400  1.0
  O0+  O563  1  0.836667  0.174711  0.263600  1.0
  O0+  O564  1  0.086667  0.424711  0.736400  1.0
  O0+  O565  1  0.086667  0.825289  0.513600  1.0
  O0+  O566  1  0.163333  0.424711  0.513600  1.0
  O0+  O567  1  0.163333  0.825289  0.736400  1.0
  O0+  O568  1  0.413333  0.075289  0.263600  1.0
  O0+  O569  1  0.413333  0.674711  0.486400  1.0
  O0+  O570  1  0.336667  0.075289  0.486400  1.0
  O0+  O571  1  0.336667  0.674711  0.263600  1.0
  O0+  O572  1  0.586667  0.924711  0.736400  1.0
  O0+  O573  1  0.586667  0.325289  0.513600  1.0
  O0+  O574  1  0.663333  0.924711  0.513600  1.0
  O0+  O575  1  0.663333  0.325289  0.736400  1.0
  O0+  O576  1  0.413333  0.575289  0.763600  1.0
  O0+  O577  1  0.413333  0.174711  0.986400  1.0
  O0+  O578  1  0.336667  0.575289  0.986400  1.0
  O0+  O579  1  0.336667  0.174711  0.763600  1.0
  O0+  O580  1  0.586667  0.424711  0.236400  1.0
  O0+  O581  1  0.586667  0.825289  0.013600  1.0
  O0+  O582  1  0.663333  0.424711  0.013600  1.0
  O0+  O583  1  0.663333  0.825289  0.236400  1.0
  O0+  O584  1  0.839867  0.998089  0.767600  1.0
  O0+  O585  1  0.839867  0.751911  0.982400  1.0
  O0+  O586  1  0.910133  0.998089  0.982400  1.0
  O0+  O587  1  0.910133  0.751911  0.767600  1.0
  O0+  O588  1  0.160133  0.001911  0.232400  1.0
  O0+  O589  1  0.160133  0.248089  0.017600  1.0
  O0+  O590  1  0.089867  0.001911  0.017600  1.0
  O0+  O591  1  0.089867  0.248089  0.232400  1.0
  O0+  O592  1  0.839867  0.498089  0.267600  1.0
  O0+  O593  1  0.839867  0.251911  0.482400  1.0
  O0+  O594  1  0.910133  0.498089  0.482400  1.0
  O0+  O595  1  0.910133  0.251911  0.267600  1.0
  O0+  O596  1  0.160133  0.501911  0.732400  1.0
  O0+  O597  1  0.160133  0.748089  0.517600  1.0
  O0+  O598  1  0.089867  0.501911  0.517600  1.0
  O0+  O599  1  0.089867  0.748089  0.732400  1.0
  O0+  O600  1  0.339867  0.998089  0.267600  1.0
  O0+  O601  1  0.339867  0.751911  0.482400  1.0
  O0+  O602  1  0.410133  0.998089  0.482400  1.0
  O0+  O603  1  0.410133  0.751911  0.267600  1.0
  O0+  O604  1  0.660133  0.001911  0.732400  1.0
  O0+  O605  1  0.660133  0.248089  0.517600  1.0
  O0+  O606  1  0.589867  0.001911  0.517600  1.0
  O0+  O607  1  0.589867  0.248089  0.732400  1.0
  O0+  O608  1  0.339867  0.498089  0.767600  1.0
  O0+  O609  1  0.339867  0.251911  0.982400  1.0
  O0+  O610  1  0.410133  0.498089  0.982400  1.0
  O0+  O611  1  0.410133  0.251911  0.767600  1.0
  O0+  O612  1  0.660133  0.501911  0.232400  1.0
  O0+  O613  1  0.660133  0.748089  0.017600  1.0
  O0+  O614  1  0.589867  0.501911  0.017600  1.0
  O0+  O615  1  0.589867  0.748089  0.232400  1.0
  O0+  O616  1  0.836267  0.912067  0.481067  1.0
  O0+  O617  1  0.836267  0.837933  0.268933  1.0
  O0+  O618  1  0.913733  0.912067  0.268933  1.0
  O0+  O619  1  0.913733  0.837933  0.481067  1.0
  O0+  O620  1  0.163733  0.087933  0.518933  1.0
  O0+  O621  1  0.163733  0.162067  0.731067  1.0
  O0+  O622  1  0.086267  0.087933  0.731067  1.0
  O0+  O623  1  0.086267  0.162067  0.518933  1.0
  O0+  O624  1  0.836267  0.412067  0.981067  1.0
  O0+  O625  1  0.836267  0.337933  0.768933  1.0
  O0+  O626  1  0.913733  0.412067  0.768933  1.0
  O0+  O627  1  0.913733  0.337933  0.981067  1.0
  O0+  O628  1  0.163733  0.587933  0.018933  1.0
  O0+  O629  1  0.163733  0.662067  0.231067  1.0
  O0+  O630  1  0.086267  0.587933  0.231067  1.0
  O0+  O631  1  0.086267  0.662067  0.018933  1.0
  O0+  O632  1  0.336267  0.912067  0.981067  1.0
  O0+  O633  1  0.336267  0.837933  0.768933  1.0
  O0+  O634  1  0.413733  0.912067  0.768933  1.0
  O0+  O635  1  0.413733  0.837933  0.981067  1.0
  O0+  O636  1  0.663733  0.087933  0.018933  1.0
  O0+  O637  1  0.663733  0.162067  0.231067  1.0
  O0+  O638  1  0.586267  0.087933  0.231067  1.0
  O0+  O639  1  0.586267  0.162067  0.018933  1.0
  O0+  O640  1  0.336267  0.412067  0.481067  1.0
  O0+  O641  1  0.336267  0.337933  0.268933  1.0
  O0+  O642  1  0.413733  0.412067  0.268933  1.0
  O0+  O643  1  0.413733  0.337933  0.481067  1.0
  O0+  O644  1  0.663733  0.587933  0.518933  1.0
  O0+  O645  1  0.663733  0.662067  0.731067  1.0
  O0+  O646  1  0.586267  0.587933  0.731067  1.0
  O0+  O647  1  0.586267  0.662067  0.518933  1.0
