# generated using pymatgen
data_LiTi
_symmetry_space_group_name_H-M   'P 1'
_cell_length_a   5.00308882
_cell_length_b   7.95499565
_cell_length_c   5.75130218
_cell_angle_alpha   90.00000000
_cell_angle_beta   90.00000000
_cell_angle_gamma   90.00000000
_symmetry_Int_Tables_number   1
_chemical_formula_structural   LiTi
_chemical_formula_sum   'Li6 Ti6'
_cell_volume   228.89923753
_cell_formula_units_Z   6
loop_
 _symmetry_equiv_pos_site_id
 _symmetry_equiv_pos_as_xyz
  1  'x, y, z'
loop_
 _atom_type_symbol
 _atom_type_oxidation_number
  Li0+  0.0
  Ti0+  0.0
loop_
 _atom_site_type_symbol
 _atom_site_label
 _atom_site_symmetry_multiplicity
 _atom_site_fract_x
 _atom_site_fract_y
 _atom_site_fract_z
 _atom_site_occupancy
  Li0+  Li0  1  0.000000  0.000000  0.750000  0.5
  Ti0+  Ti1  1  0.000000  0.000000  0.750000  0.5
  Li0+  Li2  1  0.000000  0.000000  0.250000  0.5
  Ti0+  Ti3  1  0.000000  0.000000  0.250000  0.5
  Li0+  Li4  1  0.500000  0.500000  0.250000  0.5
  Ti0+  Ti5  1  0.500000  0.500000  0.250000  0.5
  Li0+  Li6  1  0.500000  0.500000  0.750000  0.5
  Ti0+  Ti7  1  0.500000  0.500000  0.750000  0.5
  Li0+  Li8  1  0.555580  0.826671  0.527778  0.5
  Ti0+  Ti9  1  0.555580  0.826671  0.527778  0.5
  Li0+  Li10  1  0.444420  0.173329  0.472222  0.5
  Ti0+  Ti11  1  0.444420  0.173329  0.472222  0.5
  Li0+  Li12  1  0.444420  0.826671  0.027778  0.5
  Ti0+  Ti13  1  0.444420  0.826671  0.027778  0.5
  Li0+  Li14  1  0.555580  0.173329  -0.027778  0.5
  Ti0+  Ti15  1  0.555580  0.173329  -0.027778  0.5
  Li0+  Li16  1  0.055580  0.326671  0.027778  0.5
  Ti0+  Ti17  1  0.055580  0.326671  0.027778  0.5
  Li0+  Li18  1  0.944420  0.673329  -0.027778  0.5
  Ti0+  Ti19  1  0.944420  0.673329  -0.027778  0.5
  Li0+  Li20  1  0.944420  0.326671  0.527778  0.5
  Ti0+  Ti21  1  0.944420  0.326671  0.527778  0.5
  Li0+  Li22  1  0.055580  0.673329  0.472222  0.5
  Ti0+  Ti23  1  0.055580  0.673329  0.472222  0.5
