# generated using pymatgen
data_LiTi5Mn6O16
_symmetry_space_group_name_H-M   'P 1'
_cell_length_a   8.61936512
_cell_length_b   8.61936512
_cell_length_c   8.51156667
_cell_angle_alpha   90.00000000
_cell_angle_beta   90.00000000
_cell_angle_gamma   90.00000000
_symmetry_Int_Tables_number   1
_chemical_formula_structural   LiTi5Mn6O16
_chemical_formula_sum   'Li2 Ti10 Mn12 O32'
_cell_volume   632.35369573
_cell_formula_units_Z   2
loop_
 _symmetry_equiv_pos_site_id
 _symmetry_equiv_pos_as_xyz
  1  'x, y, z'
loop_
 _atom_type_symbol
 _atom_type_oxidation_number
  Li0+  0.0
  Ti0+  0.0
  Mn0+  0.0
  O0+  0.0
loop_
 _atom_site_type_symbol
 _atom_site_label
 _atom_site_symmetry_multiplicity
 _atom_site_fract_x
 _atom_site_fract_y
 _atom_site_fract_z
 _atom_site_occupancy
  Li0+  Li0  1  0.875000  0.881000  0.875000  0.25
  Mn0+  Mn1  1  0.875000  0.881000  0.875000  0.75
  Li0+  Li2  1  0.119000  0.125000  0.125000  0.25
  Mn0+  Mn3  1  0.119000  0.125000  0.125000  0.75
  Li0+  Li4  1  0.875000  0.369000  0.375000  0.25
  Mn0+  Mn5  1  0.875000  0.369000  0.375000  0.75
  Li0+  Li6  1  0.131000  0.625000  0.625000  0.25
  Mn0+  Mn7  1  0.131000  0.625000  0.625000  0.75
  Li0+  Li8  1  0.375000  0.869000  0.375000  0.25
  Mn0+  Mn9  1  0.375000  0.869000  0.375000  0.75
  Li0+  Li10  1  0.631000  0.125000  0.625000  0.25
  Mn0+  Mn11  1  0.631000  0.125000  0.625000  0.75
  Li0+  Li12  1  0.375000  0.381000  0.875000  0.25
  Mn0+  Mn13  1  0.375000  0.381000  0.875000  0.75
  Li0+  Li14  1  0.619000  0.625000  0.125000  0.25
  Mn0+  Mn15  1  0.619000  0.625000  0.125000  0.75
  Ti0+  Ti16  1  0.501000  0.251000  0.250000  1.0
  Ti0+  Ti17  1  0.252667  0.502667  0.250000  0.25
  Mn0+  Mn18  1  0.252667  0.502667  0.250000  0.75
  Ti0+  Ti19  1  0.249000  0.251000  0.500000  1.0
  Ti0+  Ti20  1  0.497333  0.502667  0.500000  0.25
  Mn0+  Mn21  1  0.497333  0.502667  0.500000  0.75
  Ti0+  Ti22  1  0.497333  0.747333  0.750000  0.25
  Mn0+  Mn23  1  0.497333  0.747333  0.750000  0.75
  Ti0+  Ti24  1  0.749000  0.499000  0.750000  1.0
  Ti0+  Ti25  1  0.749000  0.751000  0.500000  1.0
  Ti0+  Ti26  1  0.249000  -0.001000  0.750000  1.0
  Ti0+  Ti27  1  0.252667  0.747333  0.000000  0.25
  Mn0+  Mn28  1  0.252667  0.747333  0.000000  0.75
  Ti0+  Ti29  1  0.501000  -0.001000  0.000000  1.0
  Ti0+  Ti30  1  0.752667  0.002667  0.250000  0.25
  Mn0+  Mn31  1  0.752667  0.002667  0.250000  0.75
  Ti0+  Ti32  1  0.752667  0.247333  0.000000  0.25
  Mn0+  Mn33  1  0.752667  0.247333  0.000000  0.75
  Ti0+  Ti34  1  -0.002667  0.247333  0.750000  0.25
  Mn0+  Mn35  1  -0.002667  0.247333  0.750000  0.75
  Ti0+  Ti36  1  0.001000  0.499000  0.000000  1.0
  Ti0+  Ti37  1  0.001000  0.751000  0.250000  1.0
  Ti0+  Ti38  1  -0.002667  0.002667  0.500000  0.25
  Mn0+  Mn39  1  -0.002667  0.002667  0.500000  0.75
  O0+  O40  1  0.734733  0.000600  0.010267  1.0
  O0+  O41  1  -0.016733  0.738733  0.014267  1.0
  O0+  O42  1  0.015267  0.000600  0.739733  1.0
  O0+  O43  1  0.766733  0.738733  0.735733  1.0
  O0+  O44  1  0.261267  1.016733  0.985733  1.0
  O0+  O45  1  0.999400  0.265267  0.989733  1.0
  O0+  O46  1  0.999400  0.984733  0.260267  1.0
  O0+  O47  1  0.261267  0.233267  0.264267  1.0
  O0+  O48  1  0.766733  0.511267  0.514267  1.0
  O0+  O49  1  0.015267  0.249400  0.510267  1.0
  O0+  O50  1  -0.016733  0.511267  0.235733  1.0
  O0+  O51  1  0.734733  0.249400  0.239733  1.0
  O0+  O52  1  0.250600  0.484733  0.489733  1.0
  O0+  O53  1  0.988733  0.733267  0.485733  1.0
  O0+  O54  1  0.988733  0.516733  0.764267  1.0
  O0+  O55  1  0.250600  0.765267  0.760267  1.0
  O0+  O56  1  0.266733  0.011267  0.514267  1.0
  O0+  O57  1  0.515267  0.749400  0.510267  1.0
  O0+  O58  1  0.483267  0.011267  0.235733  1.0
  O0+  O59  1  0.234733  0.749400  0.239733  1.0
  O0+  O60  1  0.750600  0.984733  0.489733  1.0
  O0+  O61  1  0.488733  0.233267  0.485733  1.0
  O0+  O62  1  0.488733  1.016733  0.764267  1.0
  O0+  O63  1  0.750600  0.265267  0.760267  1.0
  O0+  O64  1  0.234733  0.500600  0.010267  1.0
  O0+  O65  1  0.483267  0.238733  0.014267  1.0
  O0+  O66  1  0.515267  0.500600  0.739733  1.0
  O0+  O67  1  0.266733  0.238733  0.735733  1.0
  O0+  O68  1  0.761267  0.516733  0.985733  1.0
  O0+  O69  1  0.499400  0.765267  0.989733  1.0
  O0+  O70  1  0.499400  0.484733  0.260267  1.0
  O0+  O71  1  0.761267  0.733267  0.264267  1.0
