# generated using pymatgen
data_LiTi2Mn9O16
_symmetry_space_group_name_H-M   'P 1'
_cell_length_a   8.22790046
_cell_length_b   9.39500000
_cell_length_c   8.22790046
_cell_angle_alpha   90.00000000
_cell_angle_beta   89.86212779
_cell_angle_gamma   90.00000000
_symmetry_Int_Tables_number   1
_chemical_formula_structural   LiTi2Mn9O16
_chemical_formula_sum   'Li2 Ti4 Mn18 O32'
_cell_volume   636.02411925
_cell_formula_units_Z   2
loop_
 _symmetry_equiv_pos_site_id
 _symmetry_equiv_pos_as_xyz
  1  'x, y, z'
loop_
 _atom_type_symbol
 _atom_type_oxidation_number
  Li0+  0.0
  Ti0+  0.0
  Mn0+  0.0
  O0+  0.0
loop_
 _atom_site_type_symbol
 _atom_site_label
 _atom_site_symmetry_multiplicity
 _atom_site_fract_x
 _atom_site_fract_y
 _atom_site_fract_z
 _atom_site_occupancy
  Li0+  Li0  1  0.875000  0.874200  0.875000  0.25
  Mn0+  Mn1  1  0.875000  0.874200  0.875000  0.75
  Li0+  Li2  1  0.125000  0.125800  0.125000  0.25
  Mn0+  Mn3  1  0.125000  0.125800  0.125000  0.75
  Li0+  Li4  1  0.875000  0.374200  0.375000  0.25
  Mn0+  Mn5  1  0.875000  0.374200  0.375000  0.75
  Li0+  Li6  1  0.125000  0.625800  0.625000  0.25
  Mn0+  Mn7  1  0.125000  0.625800  0.625000  0.75
  Li0+  Li8  1  0.375000  0.874200  0.375000  0.25
  Mn0+  Mn9  1  0.375000  0.874200  0.375000  0.75
  Li0+  Li10  1  0.625000  0.125800  0.625000  0.25
  Mn0+  Mn11  1  0.625000  0.125800  0.625000  0.75
  Li0+  Li12  1  0.375000  0.374200  0.875000  0.25
  Mn0+  Mn13  1  0.375000  0.374200  0.875000  0.75
  Li0+  Li14  1  0.625000  0.625800  0.125000  0.25
  Mn0+  Mn15  1  0.625000  0.625800  0.125000  0.75
  Ti0+  Ti16  1  0.500000  0.250000  0.250000  0.25
  Mn0+  Mn17  1  0.500000  0.250000  0.250000  0.75
  Ti0+  Ti18  1  0.250000  0.500000  0.250000  0.25
  Mn0+  Mn19  1  0.250000  0.500000  0.250000  0.75
  Ti0+  Ti20  1  0.250000  0.250000  0.500000  0.25
  Mn0+  Mn21  1  0.250000  0.250000  0.500000  0.75
  Ti0+  Ti22  1  0.500000  0.500000  0.500000  0.25
  Mn0+  Mn23  1  0.500000  0.500000  0.500000  0.75
  Ti0+  Ti24  1  0.500000  0.750000  0.750000  0.25
  Mn0+  Mn25  1  0.500000  0.750000  0.750000  0.75
  Ti0+  Ti26  1  0.750000  0.500000  0.750000  0.25
  Mn0+  Mn27  1  0.750000  0.500000  0.750000  0.75
  Ti0+  Ti28  1  0.750000  0.750000  0.500000  0.25
  Mn0+  Mn29  1  0.750000  0.750000  0.500000  0.75
  Ti0+  Ti30  1  0.250000  0.000000  0.750000  0.25
  Mn0+  Mn31  1  0.250000  0.000000  0.750000  0.75
  Ti0+  Ti32  1  0.250000  0.750000  0.000000  0.25
  Mn0+  Mn33  1  0.250000  0.750000  0.000000  0.75
  Ti0+  Ti34  1  0.500000  0.000000  0.000000  0.25
  Mn0+  Mn35  1  0.500000  0.000000  0.000000  0.75
  Ti0+  Ti36  1  0.750000  0.000000  0.250000  0.25
  Mn0+  Mn37  1  0.750000  0.000000  0.250000  0.75
  Ti0+  Ti38  1  0.750000  0.250000  0.000000  0.25
  Mn0+  Mn39  1  0.750000  0.250000  0.000000  0.75
  Ti0+  Ti40  1  0.000000  0.250000  0.750000  0.25
  Mn0+  Mn41  1  0.000000  0.250000  0.750000  0.75
  Ti0+  Ti42  1  0.000000  0.500000  0.000000  0.25
  Mn0+  Mn43  1  0.000000  0.500000  0.000000  0.75
  Ti0+  Ti44  1  0.000000  0.750000  0.250000  0.25
  Mn0+  Mn45  1  0.000000  0.750000  0.250000  0.75
  Ti0+  Ti46  1  0.000000  0.000000  0.500000  0.25
  Mn0+  Mn47  1  0.000000  0.000000  0.500000  0.75
  O0+  O48  1  0.735200  0.007400  0.014800  1.0
  O0+  O49  1  0.015400  0.742600  0.015400  1.0
  O0+  O50  1  0.014800  0.007400  0.735200  1.0
  O0+  O51  1  0.734600  0.742600  0.734600  1.0
  O0+  O52  1  0.264800  0.992600  0.985200  1.0
  O0+  O53  1  0.984600  0.257400  0.984600  1.0
  O0+  O54  1  0.985200  0.992600  0.264800  1.0
  O0+  O55  1  0.265400  0.257400  0.265400  1.0
  O0+  O56  1  0.735200  0.507400  0.514800  1.0
  O0+  O57  1  0.015400  0.242600  0.515400  1.0
  O0+  O58  1  0.014800  0.507400  0.235200  1.0
  O0+  O59  1  0.734600  0.242600  0.234600  1.0
  O0+  O60  1  0.264800  0.492600  0.485200  1.0
  O0+  O61  1  0.984600  0.757400  0.484600  1.0
  O0+  O62  1  0.985200  0.492600  0.764800  1.0
  O0+  O63  1  0.265400  0.757400  0.765400  1.0
  O0+  O64  1  0.235200  0.007400  0.514800  1.0
  O0+  O65  1  0.515400  0.742600  0.515400  1.0
  O0+  O66  1  0.514800  0.007400  0.235200  1.0
  O0+  O67  1  0.234600  0.742600  0.234600  1.0
  O0+  O68  1  0.764800  0.992600  0.485200  1.0
  O0+  O69  1  0.484600  0.257400  0.484600  1.0
  O0+  O70  1  0.485200  0.992600  0.764800  1.0
  O0+  O71  1  0.765400  0.257400  0.765400  1.0
  O0+  O72  1  0.235200  0.507400  0.014800  1.0
  O0+  O73  1  0.515400  0.242600  0.015400  1.0
  O0+  O74  1  0.514800  0.507400  0.735200  1.0
  O0+  O75  1  0.234600  0.242600  0.734600  1.0
  O0+  O76  1  0.764800  0.492600  0.985200  1.0
  O0+  O77  1  0.484600  0.757400  0.984600  1.0
  O0+  O78  1  0.485200  0.492600  0.264800  1.0
  O0+  O79  1  0.765400  0.757400  0.265400  1.0
