# generated using pymatgen
data_LiTi3Mn2O8
_symmetry_space_group_name_H-M   'P 1'
_cell_length_a   8.51303256
_cell_length_b   8.51303256
_cell_length_c   8.45913333
_cell_angle_alpha   90.00000000
_cell_angle_beta   90.00000000
_cell_angle_gamma   90.00000000
_symmetry_Int_Tables_number   1
_chemical_formula_structural   LiTi3Mn2O8
_chemical_formula_sum   'Li4 Ti12 Mn8 O32'
_cell_volume   613.04797086
_cell_formula_units_Z   4
loop_
 _symmetry_equiv_pos_site_id
 _symmetry_equiv_pos_as_xyz
  1  'x, y, z'
loop_
 _atom_type_symbol
 _atom_type_oxidation_number
  Li0+  0.0
  Ti0+  0.0
  Mn0+  0.0
  O0+  0.0
loop_
 _atom_site_type_symbol
 _atom_site_label
 _atom_site_symmetry_multiplicity
 _atom_site_fract_x
 _atom_site_fract_y
 _atom_site_fract_z
 _atom_site_occupancy
  Li0+  Li0  1  0.875000  0.878000  0.875000  0.5
  Mn0+  Mn1  1  0.875000  0.878000  0.875000  0.5
  Li0+  Li2  1  0.122000  0.125000  0.125000  0.5
  Mn0+  Mn3  1  0.122000  0.125000  0.125000  0.5
  Li0+  Li4  1  0.875000  0.372000  0.375000  0.5
  Mn0+  Mn5  1  0.875000  0.372000  0.375000  0.5
  Li0+  Li6  1  0.128000  0.625000  0.625000  0.5
  Mn0+  Mn7  1  0.128000  0.625000  0.625000  0.5
  Li0+  Li8  1  0.375000  0.872000  0.375000  0.5
  Mn0+  Mn9  1  0.375000  0.872000  0.375000  0.5
  Li0+  Li10  1  0.628000  0.125000  0.625000  0.5
  Mn0+  Mn11  1  0.628000  0.125000  0.625000  0.5
  Li0+  Li12  1  0.375000  0.378000  0.875000  0.5
  Mn0+  Mn13  1  0.375000  0.378000  0.875000  0.5
  Li0+  Li14  1  0.622000  0.625000  0.125000  0.5
  Mn0+  Mn15  1  0.622000  0.625000  0.125000  0.5
  Ti0+  Ti16  1  0.500500  0.250500  0.250000  1.0
  Ti0+  Ti17  1  0.251333  0.501333  0.250000  0.5
  Mn0+  Mn18  1  0.251333  0.501333  0.250000  0.5
  Ti0+  Ti19  1  0.249500  0.250500  0.500000  1.0
  Ti0+  Ti20  1  0.498667  0.501333  0.500000  0.5
  Mn0+  Mn21  1  0.498667  0.501333  0.500000  0.5
  Ti0+  Ti22  1  0.498667  0.748667  0.750000  0.5
  Mn0+  Mn23  1  0.498667  0.748667  0.750000  0.5
  Ti0+  Ti24  1  0.749500  0.499500  0.750000  1.0
  Ti0+  Ti25  1  0.749500  0.750500  0.500000  1.0
  Ti0+  Ti26  1  0.249500  -0.000500  0.750000  1.0
  Ti0+  Ti27  1  0.251333  0.748667  0.000000  0.5
  Mn0+  Mn28  1  0.251333  0.748667  0.000000  0.5
  Ti0+  Ti29  1  0.500500  -0.000500  0.000000  1.0
  Ti0+  Ti30  1  0.751333  0.001333  0.250000  0.5
  Mn0+  Mn31  1  0.751333  0.001333  0.250000  0.5
  Ti0+  Ti32  1  0.751333  0.248667  0.000000  0.5
  Mn0+  Mn33  1  0.751333  0.248667  0.000000  0.5
  Ti0+  Ti34  1  -0.001333  0.248667  0.750000  0.5
  Mn0+  Mn35  1  -0.001333  0.248667  0.750000  0.5
  Ti0+  Ti36  1  0.000500  0.499500  0.000000  1.0
  Ti0+  Ti37  1  0.000500  0.750500  0.250000  1.0
  Ti0+  Ti38  1  -0.001333  0.001333  0.500000  0.5
  Mn0+  Mn39  1  -0.001333  0.001333  0.500000  0.5
  O0+  O40  1  0.735967  0.006700  0.011533  1.0
  O0+  O41  1  -0.001967  0.737967  0.013533  1.0
  O0+  O42  1  0.014033  0.006700  0.738467  1.0
  O0+  O43  1  0.751967  0.737967  0.736467  1.0
  O0+  O44  1  0.262033  1.001967  0.986467  1.0
  O0+  O45  1  0.993300  0.264033  0.988467  1.0
  O0+  O46  1  0.993300  0.985967  0.261533  1.0
  O0+  O47  1  0.262033  0.248033  0.263533  1.0
  O0+  O48  1  0.751967  0.512033  0.513533  1.0
  O0+  O49  1  0.014033  0.243300  0.511533  1.0
  O0+  O50  1  -0.001967  0.512033  0.236467  1.0
  O0+  O51  1  0.735967  0.243300  0.238467  1.0
  O0+  O52  1  0.256700  0.485967  0.488467  1.0
  O0+  O53  1  0.987967  0.748033  0.486467  1.0
  O0+  O54  1  0.987967  0.501967  0.763533  1.0
  O0+  O55  1  0.256700  0.764033  0.761533  1.0
  O0+  O56  1  0.251967  0.012033  0.513533  1.0
  O0+  O57  1  0.514033  0.743300  0.511533  1.0
  O0+  O58  1  0.498033  0.012033  0.236467  1.0
  O0+  O59  1  0.235967  0.743300  0.238467  1.0
  O0+  O60  1  0.756700  0.985967  0.488467  1.0
  O0+  O61  1  0.487967  0.248033  0.486467  1.0
  O0+  O62  1  0.487967  1.001967  0.763533  1.0
  O0+  O63  1  0.756700  0.264033  0.761533  1.0
  O0+  O64  1  0.235967  0.506700  0.011533  1.0
  O0+  O65  1  0.498033  0.237967  0.013533  1.0
  O0+  O66  1  0.514033  0.506700  0.738467  1.0
  O0+  O67  1  0.251967  0.237967  0.736467  1.0
  O0+  O68  1  0.762033  0.501967  0.986467  1.0
  O0+  O69  1  0.493300  0.764033  0.988467  1.0
  O0+  O70  1  0.493300  0.485967  0.261533  1.0
  O0+  O71  1  0.762033  0.748033  0.263533  1.0
