# generated using pymatgen
data_LiTiMnO4
_symmetry_space_group_name_H-M   'P 1'
_cell_length_a   8.35490000
_cell_length_b   8.35490000
_cell_length_c   8.35490000
_cell_angle_alpha   90.00000000
_cell_angle_beta   90.00000000
_cell_angle_gamma   90.00000000
_symmetry_Int_Tables_number   1
_chemical_formula_structural   LiTiMnO4
_chemical_formula_sum   'Li8 Ti8 Mn8 O32'
_cell_volume   583.20839732
_cell_formula_units_Z   8
loop_
 _symmetry_equiv_pos_site_id
 _symmetry_equiv_pos_as_xyz
  1  'x, y, z'
loop_
 _atom_type_symbol
 _atom_type_oxidation_number
  Li0+  0.0
  Ti0+  0.0
  Mn0+  0.0
  O0+  0.0
loop_
 _atom_site_type_symbol
 _atom_site_label
 _atom_site_symmetry_multiplicity
 _atom_site_fract_x
 _atom_site_fract_y
 _atom_site_fract_z
 _atom_site_occupancy
  Li0+  Li0  1  0.875000  0.875000  0.875000  1.0
  Li0+  Li1  1  0.125000  0.125000  0.125000  1.0
  Li0+  Li2  1  0.875000  0.375000  0.375000  1.0
  Li0+  Li3  1  0.125000  0.625000  0.625000  1.0
  Li0+  Li4  1  0.375000  0.875000  0.375000  1.0
  Li0+  Li5  1  0.625000  0.125000  0.625000  1.0
  Li0+  Li6  1  0.375000  0.375000  0.875000  1.0
  Li0+  Li7  1  0.625000  0.625000  0.125000  1.0
  Ti0+  Ti8  1  0.500000  0.250000  0.250000  0.5
  Mn0+  Mn9  1  0.500000  0.250000  0.250000  0.5
  Ti0+  Ti10  1  0.250000  0.500000  0.250000  0.5
  Mn0+  Mn11  1  0.250000  0.500000  0.250000  0.5
  Ti0+  Ti12  1  0.250000  0.250000  0.500000  0.5
  Mn0+  Mn13  1  0.250000  0.250000  0.500000  0.5
  Ti0+  Ti14  1  0.500000  0.500000  0.500000  0.5
  Mn0+  Mn15  1  0.500000  0.500000  0.500000  0.5
  Ti0+  Ti16  1  0.500000  0.750000  0.750000  0.5
  Mn0+  Mn17  1  0.500000  0.750000  0.750000  0.5
  Ti0+  Ti18  1  0.750000  0.500000  0.750000  0.5
  Mn0+  Mn19  1  0.750000  0.500000  0.750000  0.5
  Ti0+  Ti20  1  0.750000  0.750000  0.500000  0.5
  Mn0+  Mn21  1  0.750000  0.750000  0.500000  0.5
  Ti0+  Ti22  1  0.250000  0.000000  0.750000  0.5
  Mn0+  Mn23  1  0.250000  0.000000  0.750000  0.5
  Ti0+  Ti24  1  0.250000  0.750000  0.000000  0.5
  Mn0+  Mn25  1  0.250000  0.750000  0.000000  0.5
  Ti0+  Ti26  1  0.500000  0.000000  0.000000  0.5
  Mn0+  Mn27  1  0.500000  0.000000  0.000000  0.5
  Ti0+  Ti28  1  0.750000  0.000000  0.250000  0.5
  Mn0+  Mn29  1  0.750000  0.000000  0.250000  0.5
  Ti0+  Ti30  1  0.750000  0.250000  0.000000  0.5
  Mn0+  Mn31  1  0.750000  0.250000  0.000000  0.5
  Ti0+  Ti32  1  0.000000  0.250000  0.750000  0.5
  Mn0+  Mn33  1  0.000000  0.250000  0.750000  0.5
  Ti0+  Ti34  1  0.000000  0.500000  0.000000  0.5
  Mn0+  Mn35  1  0.000000  0.500000  0.000000  0.5
  Ti0+  Ti36  1  0.000000  0.750000  0.250000  0.5
  Mn0+  Mn37  1  0.000000  0.750000  0.250000  0.5
  Ti0+  Ti38  1  0.000000  0.000000  0.500000  0.5
  Mn0+  Mn39  1  0.000000  0.000000  0.500000  0.5
  O0+  O40  1  0.737230  0.012770  0.012770  1.0
  O0+  O41  1  0.012770  0.737230  0.012770  1.0
  O0+  O42  1  0.012770  0.012770  0.737230  1.0
  O0+  O43  1  0.737230  0.737230  0.737230  1.0
  O0+  O44  1  0.262770  0.987230  0.987230  1.0
  O0+  O45  1  0.987230  0.262770  0.987230  1.0
  O0+  O46  1  0.987230  0.987230  0.262770  1.0
  O0+  O47  1  0.262770  0.262770  0.262770  1.0
  O0+  O48  1  0.737230  0.512770  0.512770  1.0
  O0+  O49  1  0.012770  0.237230  0.512770  1.0
  O0+  O50  1  0.012770  0.512770  0.237230  1.0
  O0+  O51  1  0.737230  0.237230  0.237230  1.0
  O0+  O52  1  0.262770  0.487230  0.487230  1.0
  O0+  O53  1  0.987230  0.762770  0.487230  1.0
  O0+  O54  1  0.987230  0.487230  0.762770  1.0
  O0+  O55  1  0.262770  0.762770  0.762770  1.0
  O0+  O56  1  0.237230  0.012770  0.512770  1.0
  O0+  O57  1  0.512770  0.737230  0.512770  1.0
  O0+  O58  1  0.512770  0.012770  0.237230  1.0
  O0+  O59  1  0.237230  0.737230  0.237230  1.0
  O0+  O60  1  0.762770  0.987230  0.487230  1.0
  O0+  O61  1  0.487230  0.262770  0.487230  1.0
  O0+  O62  1  0.487230  0.987230  0.762770  1.0
  O0+  O63  1  0.762770  0.262770  0.762770  1.0
  O0+  O64  1  0.237230  0.512770  0.012770  1.0
  O0+  O65  1  0.512770  0.237230  0.012770  1.0
  O0+  O66  1  0.512770  0.512770  0.737230  1.0
  O0+  O67  1  0.237230  0.237230  0.737230  1.0
  O0+  O68  1  0.762770  0.487230  0.987230  1.0
  O0+  O69  1  0.487230  0.762770  0.987230  1.0
  O0+  O70  1  0.487230  0.487230  0.262770  1.0
  O0+  O71  1  0.762770  0.762770  0.262770  1.0
