# generated using pymatgen
data_LiTi2Mn3O8
_symmetry_space_group_name_H-M   'P 1'
_cell_length_a   8.28749897
_cell_length_b   9.06556667
_cell_length_c   8.28749897
_cell_angle_alpha   90.00000000
_cell_angle_beta   89.90874620
_cell_angle_gamma   90.00000000
_symmetry_Int_Tables_number   1
_chemical_formula_structural   LiTi2Mn3O8
_chemical_formula_sum   'Li4 Ti8 Mn12 O32'
_cell_volume   622.64625385
_cell_formula_units_Z   4
loop_
 _symmetry_equiv_pos_site_id
 _symmetry_equiv_pos_as_xyz
  1  'x, y, z'
loop_
 _atom_type_symbol
 _atom_type_oxidation_number
  Li0+  0.0
  Ti0+  0.0
  Mn0+  0.0
  O0+  0.0
loop_
 _atom_site_type_symbol
 _atom_site_label
 _atom_site_symmetry_multiplicity
 _atom_site_fract_x
 _atom_site_fract_y
 _atom_site_fract_z
 _atom_site_occupancy
  Li0+  Li0  1  0.875000  0.874467  0.875000  0.5
  Mn0+  Mn1  1  0.875000  0.874467  0.875000  0.5
  Li0+  Li2  1  0.125000  0.125533  0.125000  0.5
  Mn0+  Mn3  1  0.125000  0.125533  0.125000  0.5
  Li0+  Li4  1  0.875000  0.374467  0.375000  0.5
  Mn0+  Mn5  1  0.875000  0.374467  0.375000  0.5
  Li0+  Li6  1  0.125000  0.625533  0.625000  0.5
  Mn0+  Mn7  1  0.125000  0.625533  0.625000  0.5
  Li0+  Li8  1  0.375000  0.874467  0.375000  0.5
  Mn0+  Mn9  1  0.375000  0.874467  0.375000  0.5
  Li0+  Li10  1  0.625000  0.125533  0.625000  0.5
  Mn0+  Mn11  1  0.625000  0.125533  0.625000  0.5
  Li0+  Li12  1  0.375000  0.374467  0.875000  0.5
  Mn0+  Mn13  1  0.375000  0.374467  0.875000  0.5
  Li0+  Li14  1  0.625000  0.625533  0.125000  0.5
  Mn0+  Mn15  1  0.625000  0.625533  0.125000  0.5
  Ti0+  Ti16  1  0.500000  0.250000  0.250000  0.5
  Mn0+  Mn17  1  0.500000  0.250000  0.250000  0.5
  Ti0+  Ti18  1  0.250000  0.500000  0.250000  0.5
  Mn0+  Mn19  1  0.250000  0.500000  0.250000  0.5
  Ti0+  Ti20  1  0.250000  0.250000  0.500000  0.5
  Mn0+  Mn21  1  0.250000  0.250000  0.500000  0.5
  Ti0+  Ti22  1  0.500000  0.500000  0.500000  0.5
  Mn0+  Mn23  1  0.500000  0.500000  0.500000  0.5
  Ti0+  Ti24  1  0.500000  0.750000  0.750000  0.5
  Mn0+  Mn25  1  0.500000  0.750000  0.750000  0.5
  Ti0+  Ti26  1  0.750000  0.500000  0.750000  0.5
  Mn0+  Mn27  1  0.750000  0.500000  0.750000  0.5
  Ti0+  Ti28  1  0.750000  0.750000  0.500000  0.5
  Mn0+  Mn29  1  0.750000  0.750000  0.500000  0.5
  Ti0+  Ti30  1  0.250000  0.000000  0.750000  0.5
  Mn0+  Mn31  1  0.250000  0.000000  0.750000  0.5
  Ti0+  Ti32  1  0.250000  0.750000  0.000000  0.5
  Mn0+  Mn33  1  0.250000  0.750000  0.000000  0.5
  Ti0+  Ti34  1  0.500000  0.000000  0.000000  0.5
  Mn0+  Mn35  1  0.500000  0.000000  0.000000  0.5
  Ti0+  Ti36  1  0.750000  0.000000  0.250000  0.5
  Mn0+  Mn37  1  0.750000  0.000000  0.250000  0.5
  Ti0+  Ti38  1  0.750000  0.250000  0.000000  0.5
  Mn0+  Mn39  1  0.750000  0.250000  0.000000  0.5
  Ti0+  Ti40  1  0.000000  0.250000  0.750000  0.5
  Mn0+  Mn41  1  0.000000  0.250000  0.750000  0.5
  Ti0+  Ti42  1  0.000000  0.500000  0.000000  0.5
  Mn0+  Mn43  1  0.000000  0.500000  0.000000  0.5
  Ti0+  Ti44  1  0.000000  0.750000  0.250000  0.5
  Mn0+  Mn45  1  0.000000  0.750000  0.250000  0.5
  Ti0+  Ti46  1  0.000000  0.000000  0.500000  0.5
  Mn0+  Mn47  1  0.000000  0.000000  0.500000  0.5
  O0+  O48  1  0.735867  0.009200  0.014133  1.0
  O0+  O49  1  0.014533  0.740800  0.014533  1.0
  O0+  O50  1  0.014133  0.009200  0.735867  1.0
  O0+  O51  1  0.735467  0.740800  0.735467  1.0
  O0+  O52  1  0.264133  0.990800  0.985867  1.0
  O0+  O53  1  0.985467  0.259200  0.985467  1.0
  O0+  O54  1  0.985867  0.990800  0.264133  1.0
  O0+  O55  1  0.264533  0.259200  0.264533  1.0
  O0+  O56  1  0.735867  0.509200  0.514133  1.0
  O0+  O57  1  0.014533  0.240800  0.514533  1.0
  O0+  O58  1  0.014133  0.509200  0.235867  1.0
  O0+  O59  1  0.735467  0.240800  0.235467  1.0
  O0+  O60  1  0.264133  0.490800  0.485867  1.0
  O0+  O61  1  0.985467  0.759200  0.485467  1.0
  O0+  O62  1  0.985867  0.490800  0.764133  1.0
  O0+  O63  1  0.264533  0.759200  0.764533  1.0
  O0+  O64  1  0.235867  0.009200  0.514133  1.0
  O0+  O65  1  0.514533  0.740800  0.514533  1.0
  O0+  O66  1  0.514133  0.009200  0.235867  1.0
  O0+  O67  1  0.235467  0.740800  0.235467  1.0
  O0+  O68  1  0.764133  0.990800  0.485867  1.0
  O0+  O69  1  0.485467  0.259200  0.485467  1.0
  O0+  O70  1  0.485867  0.990800  0.764133  1.0
  O0+  O71  1  0.764533  0.259200  0.764533  1.0
  O0+  O72  1  0.235867  0.509200  0.014133  1.0
  O0+  O73  1  0.514533  0.240800  0.014533  1.0
  O0+  O74  1  0.514133  0.509200  0.735867  1.0
  O0+  O75  1  0.235467  0.240800  0.735467  1.0
  O0+  O76  1  0.764133  0.490800  0.985867  1.0
  O0+  O77  1  0.485467  0.759200  0.985467  1.0
  O0+  O78  1  0.485867  0.490800  0.264133  1.0
  O0+  O79  1  0.764533  0.759200  0.264533  1.0
