# generated using pymatgen
data_LiTiMn2O4
_symmetry_space_group_name_H-M   'P 1'
_cell_length_a   4.17533333
_cell_length_b   4.17533333
_cell_length_c   8.71200000
_cell_angle_alpha   90.00000000
_cell_angle_beta   90.00000000
_cell_angle_gamma   90.00000000
_symmetry_Int_Tables_number   1
_chemical_formula_structural   LiTiMn2O4
_chemical_formula_sum   'Li2 Ti2 Mn4 O8'
_cell_volume   151.87985437
_cell_formula_units_Z   2
loop_
 _symmetry_equiv_pos_site_id
 _symmetry_equiv_pos_as_xyz
  1  'x, y, z'
loop_
 _atom_type_symbol
 _atom_type_oxidation_number
  Li0+  0.0
  Ti0+  0.0
  Mn0+  0.0
  O0+  0.0
loop_
 _atom_site_type_symbol
 _atom_site_label
 _atom_site_symmetry_multiplicity
 _atom_site_fract_x
 _atom_site_fract_y
 _atom_site_fract_z
 _atom_site_occupancy
  Li0+  Li0  1  0.000000  0.750000  0.625000  0.5
  Mn0+  Mn1  1  0.000000  0.750000  0.625000  0.5
  Li0+  Li2  1  0.000000  0.250000  0.375000  0.5
  Mn0+  Mn3  1  0.000000  0.250000  0.375000  0.5
  Li0+  Li4  1  0.500000  0.250000  0.125000  0.5
  Mn0+  Mn5  1  0.500000  0.250000  0.125000  0.5
  Li0+  Li6  1  0.500000  0.750000  0.875000  0.5
  Mn0+  Mn7  1  0.500000  0.750000  0.875000  0.5
  Ti0+  Ti8  1  0.000000  0.750000  0.125000  0.5
  Mn0+  Mn9  1  0.000000  0.750000  0.125000  0.5
  Ti0+  Ti10  1  0.000000  0.250000  0.875000  0.5
  Mn0+  Mn11  1  0.000000  0.250000  0.875000  0.5
  Ti0+  Ti12  1  0.500000  0.250000  0.625000  0.5
  Mn0+  Mn13  1  0.500000  0.250000  0.625000  0.5
  Ti0+  Ti14  1  0.500000  0.750000  0.375000  0.5
  Mn0+  Mn15  1  0.500000  0.750000  0.375000  0.5
  O0+  O16  1  0.000000  0.750000  0.884200  1.0
  O0+  O17  1  0.000000  0.250000  0.634200  1.0
  O0+  O18  1  0.000000  0.250000  0.115800  1.0
  O0+  O19  1  0.000000  0.750000  0.365800  1.0
  O0+  O20  1  0.500000  0.250000  0.384200  1.0
  O0+  O21  1  0.500000  0.750000  0.134200  1.0
  O0+  O22  1  0.500000  0.750000  0.615800  1.0
  O0+  O23  1  0.500000  0.250000  0.865800  1.0
