# generated using pymatgen
data_Ti0.5Mn1.5O1F3
_symmetry_space_group_name_H-M   'P 1'
_cell_length_a   4.78096667
_cell_length_b   4.78096667
_cell_length_c   3.18630000
_cell_angle_alpha   90.00000000
_cell_angle_beta   90.00000000
_cell_angle_gamma   90.00000000
_symmetry_Int_Tables_number   1
_chemical_formula_structural   Ti0.5Mn1.5O1F3
_chemical_formula_sum   'Ti0.5 Mn1.5 O1 F3'
_cell_volume   72.83130556
_cell_formula_units_Z   1
loop_
 _symmetry_equiv_pos_site_id
 _symmetry_equiv_pos_as_xyz
  1  'x, y, z'
loop_
 _atom_type_symbol
 _atom_type_oxidation_number
  Ti0+  0.0
  Mn0+  0.0
  O0+  0.0
  F0+  0.0
loop_
 _atom_site_type_symbol
 _atom_site_label
 _atom_site_symmetry_multiplicity
 _atom_site_fract_x
 _atom_site_fract_y
 _atom_site_fract_z
 _atom_site_occupancy
  Ti0+  Ti0  1  0.500000  0.500000  0.500000  0.25
  Mn0+  Mn1  1  0.500000  0.500000  0.500000  0.75
  Ti0+  Ti2  1  0.000000  0.000000  0.000000  0.25
  Mn0+  Mn3  1  0.000000  0.000000  0.000000  0.75
  O0+  O4  1  0.193240  0.806760  0.500000  0.25
  F0+  F5  1  0.193240  0.806760  0.500000  0.75
  O0+  O6  1  0.806760  0.193240  0.500000  0.25
  F0+  F7  1  0.806760  0.193240  0.500000  0.75
  O0+  O8  1  0.306760  0.306760  0.000000  0.25
  F0+  F9  1  0.306760  0.306760  0.000000  0.75
  O0+  O10  1  0.693240  0.693240  0.000000  0.25
  F0+  F11  1  0.693240  0.693240  0.000000  0.75
