# generated using pymatgen
data_Ti1.5Mn0.5O3F1
_symmetry_space_group_name_H-M   'P 1'
_cell_length_a   4.59570000
_cell_length_b   4.59570000
_cell_length_c   2.95890000
_cell_angle_alpha   90.00000000
_cell_angle_beta   90.00000000
_cell_angle_gamma   90.00000000
_symmetry_Int_Tables_number   1
_chemical_formula_structural   Ti1.5Mn0.5O3F1
_chemical_formula_sum   'Ti1.5 Mn0.5 O3 F1'
_cell_volume   62.49332463
_cell_formula_units_Z   1
loop_
 _symmetry_equiv_pos_site_id
 _symmetry_equiv_pos_as_xyz
  1  'x, y, z'
loop_
 _atom_type_symbol
 _atom_type_oxidation_number
  Ti0+  0.0
  Mn0+  0.0
  O0+  0.0
  F0+  0.0
loop_
 _atom_site_type_symbol
 _atom_site_label
 _atom_site_symmetry_multiplicity
 _atom_site_fract_x
 _atom_site_fract_y
 _atom_site_fract_z
 _atom_site_occupancy
  Ti0+  Ti0  1  0.500000  0.500000  0.500000  0.75
  Mn0+  Mn1  1  0.500000  0.500000  0.500000  0.25
  Ti0+  Ti2  1  0.000000  0.000000  0.000000  0.75
  Mn0+  Mn3  1  0.000000  0.000000  0.000000  0.25
  O0+  O4  1  0.189000  0.811000  0.500000  0.75
  F0+  F5  1  0.189000  0.811000  0.500000  0.25
  O0+  O6  1  0.811000  0.189000  0.500000  0.75
  F0+  F7  1  0.811000  0.189000  0.500000  0.25
  O0+  O8  1  0.311000  0.311000  0.000000  0.75
  F0+  F9  1  0.311000  0.311000  0.000000  0.25
  O0+  O10  1  0.689000  0.689000  0.000000  0.75
  F0+  F11  1  0.689000  0.689000  0.000000  0.25
