# generated using pymatgen
data_Ti10.5Mn1.5O18
_symmetry_space_group_name_H-M   'P 1'
_cell_length_a   5.15086667
_cell_length_b   5.15086667
_cell_length_c   13.84420000
_cell_angle_alpha   90.00000000
_cell_angle_beta   90.00000000
_cell_angle_gamma   120.00000000
_symmetry_Int_Tables_number   1
_chemical_formula_structural   Ti10.5Mn1.5O18
_chemical_formula_sum   'Ti10.5 Mn1.5 O18'
_cell_volume   318.09666251
_cell_formula_units_Z   1
loop_
 _symmetry_equiv_pos_site_id
 _symmetry_equiv_pos_as_xyz
  1  'x, y, z'
loop_
 _atom_type_symbol
 _atom_type_oxidation_number
  Ti0+  0.0
  Mn0+  0.0
  O0+  0.0
loop_
 _atom_site_type_symbol
 _atom_site_label
 _atom_site_symmetry_multiplicity
 _atom_site_fract_x
 _atom_site_fract_y
 _atom_site_fract_z
 _atom_site_occupancy
  Ti0+  Ti0  1  0.000000  0.000000  0.150173  0.75
  Mn0+  Mn1  1  0.000000  0.000000  0.150173  0.25
  Ti0+  Ti2  1  0.000000  0.000000  0.652673  1.0
  Ti0+  Ti3  1  0.000000  0.000000  0.849827  0.75
  Mn0+  Mn4  1  0.000000  0.000000  0.849827  0.25
  Ti0+  Ti5  1  0.000000  0.000000  0.347327  1.0
  Ti0+  Ti6  1  0.666667  0.333333  0.483507  0.75
  Mn0+  Mn7  1  0.666667  0.333333  0.483507  0.25
  Ti0+  Ti8  1  0.666667  0.333333  0.986007  1.0
  Ti0+  Ti9  1  0.666667  0.333333  0.183160  0.75
  Mn0+  Mn10  1  0.666667  0.333333  0.183160  0.25
  Ti0+  Ti11  1  0.666667  0.333333  0.680660  1.0
  Ti0+  Ti12  1  0.333333  0.666667  0.816840  0.75
  Mn0+  Mn13  1  0.333333  0.666667  0.816840  0.25
  Ti0+  Ti14  1  0.333333  0.666667  0.319340  1.0
  Ti0+  Ti15  1  0.333333  0.666667  0.516493  0.75
  Mn0+  Mn16  1  0.333333  0.666667  0.516493  0.25
  Ti0+  Ti17  1  0.333333  0.666667  0.013993  1.0
  O0+  O18  1  0.306800  -0.007867  0.251733  1.0
  O0+  O19  1  0.685333  0.693200  0.251733  1.0
  O0+  O20  1  0.007867  0.314667  0.251733  1.0
  O0+  O21  1  0.314667  0.306800  0.748267  1.0
  O0+  O22  1  -0.007867  0.685333  0.748267  1.0
  O0+  O23  1  0.693200  0.007867  0.748267  1.0
  O0+  O24  1  0.973467  0.325467  0.585067  1.0
  O0+  O25  1  0.352000  0.026533  0.585067  1.0
  O0+  O26  1  0.674533  0.648000  0.585067  1.0
  O0+  O27  1  0.981333  0.640133  0.081600  1.0
  O0+  O28  1  0.658800  0.018667  0.081600  1.0
  O0+  O29  1  0.359867  0.341200  0.081600  1.0
  O0+  O30  1  0.640133  0.658800  0.918400  1.0
  O0+  O31  1  0.018667  0.359867  0.918400  1.0
  O0+  O32  1  0.341200  0.981333  0.918400  1.0
  O0+  O33  1  0.648000  0.973467  0.414933  1.0
  O0+  O34  1  0.325467  0.352000  0.414933  1.0
  O0+  O35  1  0.026533  0.674533  0.414933  1.0
