# generated using pymatgen
data_Ti10.5Mn1.5O18
_symmetry_space_group_name_H-M   'P 1'
_cell_length_a   5.15700000
_cell_length_b   5.15700000
_cell_length_c   13.61000000
_cell_angle_alpha   90.00000000
_cell_angle_beta   90.00000000
_cell_angle_gamma   120.00000000
_symmetry_Int_Tables_number   1
_chemical_formula_structural   Ti10.5Mn1.5O18
_chemical_formula_sum   'Ti10.5 Mn1.5 O18'
_cell_volume   313.46064270
_cell_formula_units_Z   1
loop_
 _symmetry_equiv_pos_site_id
 _symmetry_equiv_pos_as_xyz
  1  'x, y, z'
loop_
 _atom_type_symbol
 _atom_type_oxidation_number
  Ti0+  0.0
  Mn0+  0.0
  O0+  0.0
loop_
 _atom_site_type_symbol
 _atom_site_label
 _atom_site_symmetry_multiplicity
 _atom_site_fract_x
 _atom_site_fract_y
 _atom_site_fract_z
 _atom_site_occupancy
  Ti0+  Ti0  1  0.000000  0.000000  0.489620  1.0
  Ti0+  Ti1  1  0.000000  0.000000  -0.010380  1.0
  Ti0+  Ti2  1  0.666667  0.333333  0.822953  1.0
  Ti0+  Ti3  1  0.666667  0.333333  0.322953  1.0
  Ti0+  Ti4  1  0.333333  0.666667  0.156287  1.0
  Ti0+  Ti5  1  0.333333  0.666667  0.656287  1.0
  Ti0+  Ti6  1  0.000000  0.000000  0.799940  0.75
  Mn0+  Mn7  1  0.000000  0.000000  0.799940  0.25
  Ti0+  Ti8  1  0.000000  0.000000  0.299940  0.75
  Mn0+  Mn9  1  0.000000  0.000000  0.299940  0.25
  Ti0+  Ti10  1  0.666667  0.333333  0.133273  0.75
  Mn0+  Mn11  1  0.666667  0.333333  0.133273  0.25
  Ti0+  Ti12  1  0.666667  0.333333  0.633273  0.75
  Mn0+  Mn13  1  0.666667  0.333333  0.633273  0.25
  Ti0+  Ti14  1  0.333333  0.666667  0.466607  0.75
  Mn0+  Mn15  1  0.333333  0.666667  0.466607  0.25
  Ti0+  Ti16  1  0.333333  0.666667  0.966607  0.75
  Mn0+  Mn17  1  0.333333  0.666667  0.966607  0.25
  O0+  O18  1  0.333333  0.353367  0.561447  1.0
  O0+  O19  1  0.020033  0.666667  0.561447  1.0
  O0+  O20  1  0.646633  0.979967  0.561447  1.0
  O0+  O21  1  0.333333  0.979967  0.061447  1.0
  O0+  O22  1  0.646633  0.666667  0.061447  1.0
  O0+  O23  1  0.020033  0.353367  0.061447  1.0
  O0+  O24  1  1.000000  0.686700  0.894780  1.0
  O0+  O25  1  0.686700  0.000000  0.894780  1.0
  O0+  O26  1  0.313300  0.313300  0.894780  1.0
  O0+  O27  1  1.000000  0.313300  0.394780  1.0
  O0+  O28  1  0.313300  0.000000  0.394780  1.0
  O0+  O29  1  0.686700  0.686700  0.394780  1.0
  O0+  O30  1  0.666667  0.020033  0.228113  1.0
  O0+  O31  1  0.353367  0.333333  0.228113  1.0
  O0+  O32  1  0.979967  0.646633  0.228113  1.0
  O0+  O33  1  0.666667  0.646633  0.728113  1.0
  O0+  O34  1  0.979967  0.333333  0.728113  1.0
  O0+  O35  1  0.353367  0.020033  0.728113  1.0
