# generated using pymatgen
data_Ti3Mn(O3F)2
_symmetry_space_group_name_H-M   'P 1'
_cell_length_a   4.70480000
_cell_length_b   5.67046667
_cell_length_c   5.08276667
_cell_angle_alpha   90.00000000
_cell_angle_beta   90.00000000
_cell_angle_gamma   90.00000000
_symmetry_Int_Tables_number   1
_chemical_formula_structural   Ti3Mn(O3F)2
_chemical_formula_sum   'Ti3 Mn1 O6 F2'
_cell_volume   135.60014106
_cell_formula_units_Z   1
loop_
 _symmetry_equiv_pos_site_id
 _symmetry_equiv_pos_as_xyz
  1  'x, y, z'
loop_
 _atom_type_symbol
 _atom_type_oxidation_number
  Ti0+  0.0
  Mn0+  0.0
  O0+  0.0
  F0+  0.0
loop_
 _atom_site_type_symbol
 _atom_site_label
 _atom_site_symmetry_multiplicity
 _atom_site_fract_x
 _atom_site_fract_y
 _atom_site_fract_z
 _atom_site_occupancy
  Ti0+  Ti0  1  0.000000  0.825133  0.750000  0.75
  Mn0+  Mn1  1  0.000000  0.825133  0.750000  0.25
  Ti0+  Ti2  1  0.500000  0.674867  0.250000  0.75
  Mn0+  Mn3  1  0.500000  0.674867  0.250000  0.25
  Ti0+  Ti4  1  0.000000  0.174867  0.250000  0.75
  Mn0+  Mn5  1  0.000000  0.174867  0.250000  0.25
  Ti0+  Ti6  1  0.500000  0.325133  0.750000  0.75
  Mn0+  Mn7  1  0.500000  0.325133  0.750000  0.25
  O0+  O8  1  0.270033  0.613900  0.920300  0.75
  F0+  F9  1  0.270033  0.613900  0.920300  0.25
  O0+  O10  1  0.229967  0.886100  0.420300  0.75
  F0+  F11  1  0.229967  0.886100  0.420300  0.25
  O0+  O12  1  0.770033  0.886100  0.079700  0.75
  F0+  F13  1  0.770033  0.886100  0.079700  0.25
  O0+  O14  1  0.729967  0.613900  0.579700  0.75
  F0+  F15  1  0.729967  0.613900  0.579700  0.25
  O0+  O16  1  0.729967  0.386100  0.079700  0.75
  F0+  F17  1  0.729967  0.386100  0.079700  0.25
  O0+  O18  1  0.770033  0.113900  0.579700  0.75
  F0+  F19  1  0.770033  0.113900  0.579700  0.25
  O0+  O20  1  0.229967  0.113900  0.920300  0.75
  F0+  F21  1  0.229967  0.113900  0.920300  0.25
  O0+  O22  1  0.270033  0.386100  0.420300  0.75
  F0+  F23  1  0.270033  0.386100  0.420300  0.25
