# generated using pymatgen
data_Ti3MnF12
_symmetry_space_group_name_H-M   'P 1'
_cell_length_a   9.40129698
_cell_length_b   5.42784134
_cell_length_c   13.64508279
_cell_angle_alpha   90.00000000
_cell_angle_beta   90.00000000
_cell_angle_gamma   90.00000000
_symmetry_Int_Tables_number   1
_chemical_formula_structural   Ti3MnF12
_chemical_formula_sum   'Ti9 Mn3 F36'
_cell_volume   696.29149689
_cell_formula_units_Z   3
loop_
 _symmetry_equiv_pos_site_id
 _symmetry_equiv_pos_as_xyz
  1  'x, y, z'
loop_
 _atom_type_symbol
 _atom_type_oxidation_number
  Ti0+  0.0
  Mn0+  0.0
  F0+  0.0
loop_
 _atom_site_type_symbol
 _atom_site_label
 _atom_site_symmetry_multiplicity
 _atom_site_fract_x
 _atom_site_fract_y
 _atom_site_fract_z
 _atom_site_occupancy
  Ti0+  Ti0  1  0.000000  -0.000000  0.500000  0.75
  Mn0+  Mn1  1  0.000000  -0.000000  0.500000  0.25
  Ti0+  Ti2  1  0.000000  0.000000  0.000000  0.75
  Mn0+  Mn3  1  0.000000  0.000000  0.000000  0.25
  Ti0+  Ti4  1  0.500000  0.500000  0.500000  0.75
  Mn0+  Mn5  1  0.500000  0.500000  0.500000  0.25
  Ti0+  Ti6  1  0.500000  0.500000  0.000000  0.75
  Mn0+  Mn7  1  0.500000  0.500000  0.000000  0.25
  Ti0+  Ti8  1  0.166667  0.500000  0.833333  0.75
  Mn0+  Mn9  1  0.166667  0.500000  0.833333  0.25
  Ti0+  Ti10  1  0.833333  0.500000  0.666667  0.75
  Mn0+  Mn11  1  0.833333  0.500000  0.666667  0.25
  Ti0+  Ti12  1  0.833333  0.500000  0.166667  0.75
  Mn0+  Mn13  1  0.833333  0.500000  0.166667  0.25
  Ti0+  Ti14  1  0.166667  0.500000  0.333333  0.75
  Mn0+  Mn15  1  0.166667  0.500000  0.333333  0.25
  Ti0+  Ti16  1  0.666667  1.000000  0.833333  0.75
  Mn0+  Mn17  1  0.666667  1.000000  0.833333  0.25
  Ti0+  Ti18  1  0.333333  1.000000  0.666667  0.75
  Mn0+  Mn19  1  0.333333  1.000000  0.666667  0.25
  Ti0+  Ti20  1  0.333333  0.000000  0.166667  0.75
  Mn0+  Mn21  1  0.333333  0.000000  0.166667  0.25
  Ti0+  Ti22  1  0.666667  0.000000  0.333333  0.75
  Mn0+  Mn23  1  0.666667  0.000000  0.333333  0.25
  F0+  F24  1  0.166667  1.000000  0.083333  1.0
  F0+  F25  1  0.833333  1.000000  0.416667  1.0
  F0+  F26  1  0.833333  0.000000  0.916667  1.0
  F0+  F27  1  0.166667  -0.000000  0.583333  1.0
  F0+  F28  1  0.666667  0.500000  0.083333  1.0
  F0+  F29  1  0.333333  0.500000  0.416667  1.0
  F0+  F30  1  0.333333  0.500000  0.916667  1.0
  F0+  F31  1  0.666667  0.500000  0.583333  1.0
  F0+  F32  1  0.250000  0.250000  0.750000  1.0
  F0+  F33  1  0.750000  0.250000  0.750000  1.0
  F0+  F34  1  0.750000  0.750000  0.250000  1.0
  F0+  F35  1  0.250000  0.750000  0.250000  1.0
  F0+  F36  1  0.750000  0.750000  0.750000  1.0
  F0+  F37  1  0.250000  0.750000  0.750000  1.0
  F0+  F38  1  0.250000  0.250000  0.250000  1.0
  F0+  F39  1  0.750000  0.250000  0.250000  1.0
  F0+  F40  1  0.416667  0.750000  0.083333  1.0
  F0+  F41  1  0.583333  0.750000  0.416667  1.0
  F0+  F42  1  0.583333  0.250000  0.916667  1.0
  F0+  F43  1  0.416667  0.250000  0.583333  1.0
  F0+  F44  1  0.916667  0.250000  0.083333  1.0
  F0+  F45  1  0.083333  0.250000  0.416667  1.0
  F0+  F46  1  0.083333  0.750000  0.916667  1.0
  F0+  F47  1  0.916667  0.750000  0.583333  1.0
  F0+  F48  1  0.083333  0.750000  0.416667  1.0
  F0+  F49  1  0.916667  0.750000  0.083333  1.0
  F0+  F50  1  0.916667  0.250000  0.583333  1.0
  F0+  F51  1  0.083333  0.250000  0.916667  1.0
  F0+  F52  1  0.583333  0.250000  0.416667  1.0
  F0+  F53  1  0.416667  0.250000  0.083333  1.0
  F0+  F54  1  0.416667  0.750000  0.583333  1.0
  F0+  F55  1  0.583333  0.750000  0.916667  1.0
  F0+  F56  1  0.000000  0.500000  0.750000  1.0
  F0+  F57  1  0.000000  0.500000  0.250000  1.0
  F0+  F58  1  0.500000  1.000000  0.750000  1.0
  F0+  F59  1  0.500000  0.000000  0.250000  1.0
