# generated using pymatgen
data_Ti3MnO6
_symmetry_space_group_name_H-M   'P 1'
_cell_length_a   5.17433333
_cell_length_b   5.17433333
_cell_length_c   13.73376667
_cell_angle_alpha   90.00000000
_cell_angle_beta   90.00000000
_cell_angle_gamma   120.00000000
_symmetry_Int_Tables_number   1
_chemical_formula_structural   Ti3MnO6
_chemical_formula_sum   'Ti9 Mn3 O18'
_cell_volume   318.44108999
_cell_formula_units_Z   3
loop_
 _symmetry_equiv_pos_site_id
 _symmetry_equiv_pos_as_xyz
  1  'x, y, z'
loop_
 _atom_type_symbol
 _atom_type_oxidation_number
  Ti0+  0.0
  Mn0+  0.0
  O0+  0.0
loop_
 _atom_site_type_symbol
 _atom_site_label
 _atom_site_symmetry_multiplicity
 _atom_site_fract_x
 _atom_site_fract_y
 _atom_site_fract_z
 _atom_site_occupancy
  Ti0+  Ti0  1  0.000000  0.000000  0.493613  1.0
  Ti0+  Ti1  1  0.000000  0.000000  -0.006387  1.0
  Ti0+  Ti2  1  0.666667  0.333333  0.826947  1.0
  Ti0+  Ti3  1  0.666667  0.333333  0.326947  1.0
  Ti0+  Ti4  1  0.333333  0.666667  0.160280  1.0
  Ti0+  Ti5  1  0.333333  0.666667  0.660280  1.0
  Ti0+  Ti6  1  0.000000  0.000000  0.793793  0.5
  Mn0+  Mn7  1  0.000000  0.000000  0.793793  0.5
  Ti0+  Ti8  1  0.000000  0.000000  0.293793  0.5
  Mn0+  Mn9  1  0.000000  0.000000  0.293793  0.5
  Ti0+  Ti10  1  0.666667  0.333333  0.127127  0.5
  Mn0+  Mn11  1  0.666667  0.333333  0.127127  0.5
  Ti0+  Ti12  1  0.666667  0.333333  0.627127  0.5
  Mn0+  Mn13  1  0.666667  0.333333  0.627127  0.5
  Ti0+  Ti14  1  0.333333  0.666667  0.460460  0.5
  Mn0+  Mn15  1  0.333333  0.666667  0.460460  0.5
  Ti0+  Ti16  1  0.333333  0.666667  0.960460  0.5
  Mn0+  Mn17  1  0.333333  0.666667  0.960460  0.5
  O0+  O18  1  0.319622  0.349544  0.562164  1.0
  O0+  O19  1  0.029922  0.680378  0.562164  1.0
  O0+  O20  1  0.650456  0.970078  0.562164  1.0
  O0+  O21  1  0.319622  0.970078  0.062164  1.0
  O0+  O22  1  0.650456  0.680378  0.062164  1.0
  O0+  O23  1  0.029922  0.349544  0.062164  1.0
  O0+  O24  1  0.986289  0.682878  0.895498  1.0
  O0+  O25  1  0.696589  0.013711  0.895498  1.0
  O0+  O26  1  0.317122  0.303411  0.895498  1.0
  O0+  O27  1  0.986289  0.303411  0.395498  1.0
  O0+  O28  1  0.317122  0.013711  0.395498  1.0
  O0+  O29  1  0.696589  0.682878  0.395498  1.0
  O0+  O30  1  0.652956  0.016211  0.228831  1.0
  O0+  O31  1  0.363256  0.347044  0.228831  1.0
  O0+  O32  1  0.983789  0.636744  0.228831  1.0
  O0+  O33  1  0.652956  0.636744  0.728831  1.0
  O0+  O34  1  0.983789  0.347044  0.728831  1.0
  O0+  O35  1  0.363256  0.016211  0.728831  1.0
