# generated using pymatgen
data_Ti3MnO6
_symmetry_space_group_name_H-M   'P 1'
_cell_length_a   5.14473333
_cell_length_b   5.14473333
_cell_length_c   14.07840000
_cell_angle_alpha   90.00000000
_cell_angle_beta   90.00000000
_cell_angle_gamma   120.00000000
_symmetry_Int_Tables_number   1
_chemical_formula_structural   Ti3MnO6
_chemical_formula_sum   'Ti9 Mn3 O18'
_cell_volume   322.70795401
_cell_formula_units_Z   3
loop_
 _symmetry_equiv_pos_site_id
 _symmetry_equiv_pos_as_xyz
  1  'x, y, z'
loop_
 _atom_type_symbol
 _atom_type_oxidation_number
  Ti0+  0.0
  Mn0+  0.0
  O0+  0.0
loop_
 _atom_site_type_symbol
 _atom_site_label
 _atom_site_symmetry_multiplicity
 _atom_site_fract_x
 _atom_site_fract_y
 _atom_site_fract_z
 _atom_site_occupancy
  Ti0+  Ti0  1  0.000000  0.000000  0.145187  0.5
  Mn0+  Mn1  1  0.000000  0.000000  0.145187  0.5
  Ti0+  Ti2  1  0.000000  0.000000  0.650187  1.0
  Ti0+  Ti3  1  0.000000  0.000000  0.854813  0.5
  Mn0+  Mn4  1  0.000000  0.000000  0.854813  0.5
  Ti0+  Ti5  1  0.000000  0.000000  0.349813  1.0
  Ti0+  Ti6  1  0.666667  0.333333  0.478520  0.5
  Mn0+  Mn7  1  0.666667  0.333333  0.478520  0.5
  Ti0+  Ti8  1  0.666667  0.333333  0.983520  1.0
  Ti0+  Ti9  1  0.666667  0.333333  0.188147  0.5
  Mn0+  Mn10  1  0.666667  0.333333  0.188147  0.5
  Ti0+  Ti11  1  0.666667  0.333333  0.683147  1.0
  Ti0+  Ti12  1  0.333333  0.666667  0.811853  0.5
  Mn0+  Mn13  1  0.333333  0.666667  0.811853  0.5
  Ti0+  Ti14  1  0.333333  0.666667  0.316853  1.0
  Ti0+  Ti15  1  0.333333  0.666667  0.521480  0.5
  Mn0+  Mn16  1  0.333333  0.666667  0.521480  0.5
  Ti0+  Ti17  1  0.333333  0.666667  0.016480  1.0
  O0+  O18  1  0.300300  -0.015733  0.253467  1.0
  O0+  O19  1  0.683967  0.699700  0.253467  1.0
  O0+  O20  1  0.015733  0.316033  0.253467  1.0
  O0+  O21  1  0.316033  0.300300  0.746533  1.0
  O0+  O22  1  -0.015733  0.683967  0.746533  1.0
  O0+  O23  1  0.699700  0.015733  0.746533  1.0
  O0+  O24  1  0.966967  0.317600  0.586800  1.0
  O0+  O25  1  0.350633  0.033033  0.586800  1.0
  O0+  O26  1  0.682400  0.649367  0.586800  1.0
  O0+  O27  1  0.982700  0.633633  0.079867  1.0
  O0+  O28  1  0.650933  0.017300  0.079867  1.0
  O0+  O29  1  0.366367  0.349067  0.079867  1.0
  O0+  O30  1  0.633633  0.650933  0.920133  1.0
  O0+  O31  1  0.017300  0.366367  0.920133  1.0
  O0+  O32  1  0.349067  0.982700  0.920133  1.0
  O0+  O33  1  0.649367  0.966967  0.413200  1.0
  O0+  O34  1  0.317600  0.350633  0.413200  1.0
  O0+  O35  1  0.033033  0.682400  0.413200  1.0
