# generated using pymatgen
data_Ti3Mn3O8
_symmetry_space_group_name_H-M   'P 1'
_cell_length_a   8.64189923
_cell_length_b   8.58800000
_cell_length_c   8.64189923
_cell_angle_alpha   90.00000000
_cell_angle_beta   90.00000000
_cell_angle_gamma   90.00000000
_symmetry_Int_Tables_number   1
_chemical_formula_structural   Ti3Mn3O8
_chemical_formula_sum   'Ti12 Mn12 O32'
_cell_volume   641.37264222
_cell_formula_units_Z   4
loop_
 _symmetry_equiv_pos_site_id
 _symmetry_equiv_pos_as_xyz
  1  'x, y, z'
loop_
 _atom_type_symbol
 _atom_type_oxidation_number
  Ti0+  0.0
  Mn0+  0.0
  O0+  0.0
loop_
 _atom_site_type_symbol
 _atom_site_label
 _atom_site_symmetry_multiplicity
 _atom_site_fract_x
 _atom_site_fract_y
 _atom_site_fract_z
 _atom_site_occupancy
  Ti0+  Ti0  1  0.875500  0.875000  0.625500  1.0
  Ti0+  Ti1  1  0.873667  0.625000  0.876333  0.5
  Mn0+  Mn2  1  0.873667  0.625000  0.876333  0.5
  Ti0+  Ti3  1  0.626333  0.875000  0.876333  0.5
  Mn0+  Mn4  1  0.626333  0.875000  0.876333  0.5
  Ti0+  Ti5  1  0.624500  0.625000  0.625500  1.0
  Ti0+  Ti6  1  0.373667  0.375000  0.623667  0.5
  Mn0+  Mn7  1  0.373667  0.375000  0.623667  0.5
  Ti0+  Ti8  1  0.373667  0.625000  0.376333  0.5
  Mn0+  Mn9  1  0.373667  0.625000  0.376333  0.5
  Ti0+  Ti10  1  0.624500  0.375000  0.374500  1.0
  Ti0+  Ti11  1  0.873667  0.375000  0.123667  0.5
  Mn0+  Mn12  1  0.873667  0.375000  0.123667  0.5
  Ti0+  Ti13  1  0.875500  0.125000  0.374500  1.0
  Ti0+  Ti14  1  0.626333  0.125000  0.123667  0.5
  Mn0+  Mn15  1  0.626333  0.125000  0.123667  0.5
  Ti0+  Ti16  1  0.375500  0.875000  0.125500  1.0
  Ti0+  Ti17  1  0.375500  0.125000  0.874500  1.0
  Ti0+  Ti18  1  0.126333  0.875000  0.376333  0.5
  Mn0+  Mn19  1  0.126333  0.875000  0.376333  0.5
  Ti0+  Ti20  1  0.124500  0.625000  0.125500  1.0
  Ti0+  Ti21  1  0.124500  0.375000  0.874500  1.0
  Ti0+  Ti22  1  0.126333  0.125000  0.623667  0.5
  Mn0+  Mn23  1  0.126333  0.125000  0.623667  0.5
  Mn0+  Mn24  1  0.250000  0.250000  0.253000  1.0
  Mn0+  Mn25  1  -0.003000  0.000000  0.000000  1.0
  Mn0+  Mn26  1  0.250000  0.750000  0.747000  1.0
  Mn0+  Mn27  1  0.003000  0.500000  0.500000  1.0
  Mn0+  Mn28  1  0.750000  0.250000  0.753000  1.0
  Mn0+  Mn29  1  0.497000  0.000000  0.500000  1.0
  Mn0+  Mn30  1  0.750000  0.750000  0.247000  1.0
  Mn0+  Mn31  1  0.503000  0.500000  0.000000  1.0
  O0+  O32  1  0.631167  0.636000  0.861500  1.0
  O0+  O33  1  0.636500  0.862000  0.622500  1.0
  O0+  O34  1  0.863500  0.638000  0.622500  1.0
  O0+  O35  1  0.868833  0.864000  0.861500  1.0
  O0+  O36  1  0.627500  0.612000  0.386500  1.0
  O0+  O37  1  0.627500  0.388000  0.613500  1.0
  O0+  O38  1  0.388500  0.614000  0.618833  1.0
  O0+  O39  1  0.388500  0.386000  0.381167  1.0
  O0+  O40  1  0.636500  0.138000  0.377500  1.0
  O0+  O41  1  0.631167  0.364000  0.138500  1.0
  O0+  O42  1  0.868833  0.136000  0.138500  1.0
  O0+  O43  1  0.863500  0.362000  0.377500  1.0
  O0+  O44  1  0.611500  0.114000  0.881167  1.0
  O0+  O45  1  0.611500  0.886000  0.118833  1.0
  O0+  O46  1  0.372500  0.112000  0.113500  1.0
  O0+  O47  1  0.372500  0.888000  0.886500  1.0
  O0+  O48  1  0.131167  0.636000  0.361500  1.0
  O0+  O49  1  0.136500  0.862000  0.122500  1.0
  O0+  O50  1  0.363500  0.638000  0.122500  1.0
  O0+  O51  1  0.368833  0.864000  0.361500  1.0
  O0+  O52  1  0.127500  0.612000  0.886500  1.0
  O0+  O53  1  0.127500  0.388000  0.113500  1.0
  O0+  O54  1  0.888500  0.614000  0.118833  1.0
  O0+  O55  1  0.888500  0.386000  0.881167  1.0
  O0+  O56  1  0.136500  0.138000  0.877500  1.0
  O0+  O57  1  0.131167  0.364000  0.638500  1.0
  O0+  O58  1  0.368833  0.136000  0.638500  1.0
  O0+  O59  1  0.363500  0.362000  0.877500  1.0
  O0+  O60  1  0.111500  0.114000  0.381167  1.0
  O0+  O61  1  0.111500  0.886000  0.618833  1.0
  O0+  O62  1  0.872500  0.112000  0.613500  1.0
  O0+  O63  1  0.872500  0.888000  0.386500  1.0
