# generated using pymatgen
data_Ti3Mn
_symmetry_space_group_name_H-M   'P 1'
_cell_length_a   5.01986000
_cell_length_b   7.62874000
_cell_length_c   5.58374000
_cell_angle_alpha   90.00000000
_cell_angle_beta   90.00000000
_cell_angle_gamma   90.00000000
_symmetry_Int_Tables_number   1
_chemical_formula_structural   Ti3Mn
_chemical_formula_sum   'Ti9 Mn3'
_cell_volume   213.83047789
_cell_formula_units_Z   3
loop_
 _symmetry_equiv_pos_site_id
 _symmetry_equiv_pos_as_xyz
  1  'x, y, z'
loop_
 _atom_type_symbol
 _atom_type_oxidation_number
  Ti0+  0.0
  Mn0+  0.0
loop_
 _atom_site_type_symbol
 _atom_site_label
 _atom_site_symmetry_multiplicity
 _atom_site_fract_x
 _atom_site_fract_y
 _atom_site_fract_z
 _atom_site_occupancy
  Ti0+  Ti0  1  0.000000  0.000000  0.750000  0.75
  Mn0+  Mn1  1  0.000000  0.000000  0.750000  0.25
  Ti0+  Ti2  1  0.000000  0.000000  0.250000  0.75
  Mn0+  Mn3  1  0.000000  0.000000  0.250000  0.25
  Ti0+  Ti4  1  0.500000  0.500000  0.250000  0.75
  Mn0+  Mn5  1  0.500000  0.500000  0.250000  0.25
  Ti0+  Ti6  1  0.500000  0.500000  0.750000  0.75
  Mn0+  Mn7  1  0.500000  0.500000  0.750000  0.25
  Ti0+  Ti8  1  0.583370  0.823340  0.500000  0.75
  Mn0+  Mn9  1  0.583370  0.823340  0.500000  0.25
  Ti0+  Ti10  1  0.416630  0.176660  0.500000  0.75
  Mn0+  Mn11  1  0.416630  0.176660  0.500000  0.25
  Ti0+  Ti12  1  0.416630  0.823340  0.000000  0.75
  Mn0+  Mn13  1  0.416630  0.823340  0.000000  0.25
  Ti0+  Ti14  1  0.583370  0.176660  0.000000  0.75
  Mn0+  Mn15  1  0.583370  0.176660  0.000000  0.25
  Ti0+  Ti16  1  0.083370  0.323340  0.000000  0.75
  Mn0+  Mn17  1  0.083370  0.323340  0.000000  0.25
  Ti0+  Ti18  1  0.916630  0.676660  0.000000  0.75
  Mn0+  Mn19  1  0.916630  0.676660  0.000000  0.25
  Ti0+  Ti20  1  0.916630  0.323340  0.500000  0.75
  Mn0+  Mn21  1  0.916630  0.323340  0.500000  0.25
  Ti0+  Ti22  1  0.083370  0.676660  0.500000  0.75
  Mn0+  Mn23  1  0.083370  0.676660  0.500000  0.25
