# generated using pymatgen
data_Ti3Mn3O8
_symmetry_space_group_name_H-M   'P 1'
_cell_length_a   8.60000000
_cell_length_b   8.60000000
_cell_length_c   8.60000000
_cell_angle_alpha   90.00000000
_cell_angle_beta   90.00000000
_cell_angle_gamma   90.00000000
_symmetry_Int_Tables_number   1
_chemical_formula_structural   Ti3Mn3O8
_chemical_formula_sum   'Ti12 Mn12 O32'
_cell_volume   636.05600000
_cell_formula_units_Z   4
loop_
 _symmetry_equiv_pos_site_id
 _symmetry_equiv_pos_as_xyz
  1  'x, y, z'
loop_
 _atom_type_symbol
 _atom_type_oxidation_number
  Ti0+  0.0
  Mn0+  0.0
  O0+  0.0
loop_
 _atom_site_type_symbol
 _atom_site_label
 _atom_site_symmetry_multiplicity
 _atom_site_fract_x
 _atom_site_fract_y
 _atom_site_fract_z
 _atom_site_occupancy
  Ti0+  Ti0  1  0.875000  0.875000  0.625000  0.75
  Mn0+  Mn1  1  0.875000  0.875000  0.625000  0.25
  Ti0+  Ti2  1  0.875000  0.625000  0.875000  0.75
  Mn0+  Mn3  1  0.875000  0.625000  0.875000  0.25
  Ti0+  Ti4  1  0.625000  0.875000  0.875000  0.75
  Mn0+  Mn5  1  0.625000  0.875000  0.875000  0.25
  Ti0+  Ti6  1  0.625000  0.625000  0.625000  0.75
  Mn0+  Mn7  1  0.625000  0.625000  0.625000  0.25
  Ti0+  Ti8  1  0.375000  0.375000  0.625000  0.75
  Mn0+  Mn9  1  0.375000  0.375000  0.625000  0.25
  Ti0+  Ti10  1  0.375000  0.625000  0.375000  0.75
  Mn0+  Mn11  1  0.375000  0.625000  0.375000  0.25
  Ti0+  Ti12  1  0.625000  0.375000  0.375000  0.75
  Mn0+  Mn13  1  0.625000  0.375000  0.375000  0.25
  Ti0+  Ti14  1  0.875000  0.375000  0.125000  0.75
  Mn0+  Mn15  1  0.875000  0.375000  0.125000  0.25
  Ti0+  Ti16  1  0.875000  0.125000  0.375000  0.75
  Mn0+  Mn17  1  0.875000  0.125000  0.375000  0.25
  Ti0+  Ti18  1  0.625000  0.125000  0.125000  0.75
  Mn0+  Mn19  1  0.625000  0.125000  0.125000  0.25
  Ti0+  Ti20  1  0.375000  0.875000  0.125000  0.75
  Mn0+  Mn21  1  0.375000  0.875000  0.125000  0.25
  Ti0+  Ti22  1  0.375000  0.125000  0.875000  0.75
  Mn0+  Mn23  1  0.375000  0.125000  0.875000  0.25
  Ti0+  Ti24  1  0.125000  0.875000  0.375000  0.75
  Mn0+  Mn25  1  0.125000  0.875000  0.375000  0.25
  Ti0+  Ti26  1  0.125000  0.625000  0.125000  0.75
  Mn0+  Mn27  1  0.125000  0.625000  0.125000  0.25
  Ti0+  Ti28  1  0.125000  0.375000  0.875000  0.75
  Mn0+  Mn29  1  0.125000  0.375000  0.875000  0.25
  Ti0+  Ti30  1  0.125000  0.125000  0.625000  0.75
  Mn0+  Mn31  1  0.125000  0.125000  0.625000  0.25
  Mn0+  Mn32  1  0.250000  0.250000  0.250000  1.0
  Mn0+  Mn33  1  0.000000  0.000000  0.000000  1.0
  Mn0+  Mn34  1  0.250000  0.750000  0.750000  1.0
  Mn0+  Mn35  1  0.000000  0.500000  0.500000  1.0
  Mn0+  Mn36  1  0.750000  0.250000  0.750000  1.0
  Mn0+  Mn37  1  0.500000  0.000000  0.500000  1.0
  Mn0+  Mn38  1  0.750000  0.750000  0.250000  1.0
  Mn0+  Mn39  1  0.500000  0.500000  0.000000  1.0
  O0+  O40  1  0.637000  0.637000  0.863000  1.0
  O0+  O41  1  0.637000  0.863000  0.637000  1.0
  O0+  O42  1  0.863000  0.637000  0.637000  1.0
  O0+  O43  1  0.863000  0.863000  0.863000  1.0
  O0+  O44  1  0.613000  0.613000  0.387000  1.0
  O0+  O45  1  0.613000  0.387000  0.613000  1.0
  O0+  O46  1  0.387000  0.613000  0.613000  1.0
  O0+  O47  1  0.387000  0.387000  0.387000  1.0
  O0+  O48  1  0.637000  0.137000  0.363000  1.0
  O0+  O49  1  0.637000  0.363000  0.137000  1.0
  O0+  O50  1  0.863000  0.137000  0.137000  1.0
  O0+  O51  1  0.863000  0.363000  0.363000  1.0
  O0+  O52  1  0.613000  0.113000  0.887000  1.0
  O0+  O53  1  0.613000  0.887000  0.113000  1.0
  O0+  O54  1  0.387000  0.113000  0.113000  1.0
  O0+  O55  1  0.387000  0.887000  0.887000  1.0
  O0+  O56  1  0.137000  0.637000  0.363000  1.0
  O0+  O57  1  0.137000  0.863000  0.137000  1.0
  O0+  O58  1  0.363000  0.637000  0.137000  1.0
  O0+  O59  1  0.363000  0.863000  0.363000  1.0
  O0+  O60  1  0.113000  0.613000  0.887000  1.0
  O0+  O61  1  0.113000  0.387000  0.113000  1.0
  O0+  O62  1  0.887000  0.613000  0.113000  1.0
  O0+  O63  1  0.887000  0.387000  0.887000  1.0
  O0+  O64  1  0.137000  0.137000  0.863000  1.0
  O0+  O65  1  0.137000  0.363000  0.637000  1.0
  O0+  O66  1  0.363000  0.137000  0.637000  1.0
  O0+  O67  1  0.363000  0.363000  0.863000  1.0
  O0+  O68  1  0.113000  0.113000  0.387000  1.0
  O0+  O69  1  0.113000  0.887000  0.613000  1.0
  O0+  O70  1  0.887000  0.113000  0.613000  1.0
  O0+  O71  1  0.887000  0.887000  0.387000  1.0
