# generated using pymatgen
data_Ti5Mn7O16
_symmetry_space_group_name_H-M   'P 1'
_cell_length_a   8.68379845
_cell_length_b   8.57600000
_cell_length_c   8.68379845
_cell_angle_alpha   90.00000000
_cell_angle_beta   90.00000000
_cell_angle_gamma   90.00000000
_symmetry_Int_Tables_number   1
_chemical_formula_structural   Ti5Mn7O16
_chemical_formula_sum   'Ti10 Mn14 O32'
_cell_volume   646.70205742
_cell_formula_units_Z   2
loop_
 _symmetry_equiv_pos_site_id
 _symmetry_equiv_pos_as_xyz
  1  'x, y, z'
loop_
 _atom_type_symbol
 _atom_type_oxidation_number
  Ti0+  0.0
  Mn0+  0.0
  O0+  0.0
loop_
 _atom_site_type_symbol
 _atom_site_label
 _atom_site_symmetry_multiplicity
 _atom_site_fract_x
 _atom_site_fract_y
 _atom_site_fract_z
 _atom_site_occupancy
  Ti0+  Ti0  1  0.876000  0.875000  0.626000  1.0
  Ti0+  Ti1  1  0.872333  0.625000  0.877667  0.25
  Mn0+  Mn2  1  0.872333  0.625000  0.877667  0.75
  Ti0+  Ti3  1  0.627667  0.875000  0.877667  0.25
  Mn0+  Mn4  1  0.627667  0.875000  0.877667  0.75
  Ti0+  Ti5  1  0.624000  0.625000  0.626000  1.0
  Ti0+  Ti6  1  0.372333  0.375000  0.622333  0.25
  Mn0+  Mn7  1  0.372333  0.375000  0.622333  0.75
  Ti0+  Ti8  1  0.372333  0.625000  0.377667  0.25
  Mn0+  Mn9  1  0.372333  0.625000  0.377667  0.75
  Ti0+  Ti10  1  0.624000  0.375000  0.374000  1.0
  Ti0+  Ti11  1  0.872333  0.375000  0.122333  0.25
  Mn0+  Mn12  1  0.872333  0.375000  0.122333  0.75
  Ti0+  Ti13  1  0.876000  0.125000  0.374000  1.0
  Ti0+  Ti14  1  0.627667  0.125000  0.122333  0.25
  Mn0+  Mn15  1  0.627667  0.125000  0.122333  0.75
  Ti0+  Ti16  1  0.376000  0.875000  0.126000  1.0
  Ti0+  Ti17  1  0.376000  0.125000  0.874000  1.0
  Ti0+  Ti18  1  0.127667  0.875000  0.377667  0.25
  Mn0+  Mn19  1  0.127667  0.875000  0.377667  0.75
  Ti0+  Ti20  1  0.124000  0.625000  0.126000  1.0
  Ti0+  Ti21  1  0.124000  0.375000  0.874000  1.0
  Ti0+  Ti22  1  0.127667  0.125000  0.622333  0.25
  Mn0+  Mn23  1  0.127667  0.125000  0.622333  0.75
  Mn0+  Mn24  1  0.250000  0.250000  0.256000  1.0
  Mn0+  Mn25  1  -0.006000  0.000000  0.000000  1.0
  Mn0+  Mn26  1  0.250000  0.750000  0.744000  1.0
  Mn0+  Mn27  1  0.006000  0.500000  0.500000  1.0
  Mn0+  Mn28  1  0.750000  0.250000  0.756000  1.0
  Mn0+  Mn29  1  0.494000  0.000000  0.500000  1.0
  Mn0+  Mn30  1  0.750000  0.750000  0.244000  1.0
  Mn0+  Mn31  1  0.506000  0.500000  0.000000  1.0
  O0+  O32  1  0.625333  0.635000  0.860000  1.0
  O0+  O33  1  0.636000  0.861000  0.608000  1.0
  O0+  O34  1  0.864000  0.639000  0.608000  1.0
  O0+  O35  1  0.874667  0.865000  0.860000  1.0
  O0+  O36  1  0.642000  0.611000  0.386000  1.0
  O0+  O37  1  0.642000  0.389000  0.614000  1.0
  O0+  O38  1  0.390000  0.615000  0.624667  1.0
  O0+  O39  1  0.390000  0.385000  0.375333  1.0
  O0+  O40  1  0.636000  0.139000  0.392000  1.0
  O0+  O41  1  0.625333  0.365000  0.140000  1.0
  O0+  O42  1  0.874667  0.135000  0.140000  1.0
  O0+  O43  1  0.864000  0.361000  0.392000  1.0
  O0+  O44  1  0.610000  0.115000  0.875333  1.0
  O0+  O45  1  0.610000  0.885000  0.124667  1.0
  O0+  O46  1  0.358000  0.111000  0.114000  1.0
  O0+  O47  1  0.358000  0.889000  0.886000  1.0
  O0+  O48  1  0.125333  0.635000  0.360000  1.0
  O0+  O49  1  0.136000  0.861000  0.108000  1.0
  O0+  O50  1  0.364000  0.639000  0.108000  1.0
  O0+  O51  1  0.374667  0.865000  0.360000  1.0
  O0+  O52  1  0.142000  0.611000  0.886000  1.0
  O0+  O53  1  0.142000  0.389000  0.114000  1.0
  O0+  O54  1  0.890000  0.615000  0.124667  1.0
  O0+  O55  1  0.890000  0.385000  0.875333  1.0
  O0+  O56  1  0.136000  0.139000  0.892000  1.0
  O0+  O57  1  0.125333  0.365000  0.640000  1.0
  O0+  O58  1  0.374667  0.135000  0.640000  1.0
  O0+  O59  1  0.364000  0.361000  0.892000  1.0
  O0+  O60  1  0.110000  0.115000  0.375333  1.0
  O0+  O61  1  0.110000  0.885000  0.624667  1.0
  O0+  O62  1  0.858000  0.111000  0.614000  1.0
  O0+  O63  1  0.858000  0.889000  0.386000  1.0
