# generated using pymatgen
data_Ti7.5Mn4.5O18
_symmetry_space_group_name_H-M   'P 1'
_cell_length_a   5.19166667
_cell_length_b   5.19166667
_cell_length_c   13.85753333
_cell_angle_alpha   90.00000000
_cell_angle_beta   90.00000000
_cell_angle_gamma   120.00000000
_symmetry_Int_Tables_number   1
_chemical_formula_structural   Ti7.5Mn4.5O18
_chemical_formula_sum   'Ti7.5 Mn4.5 O18'
_cell_volume   323.46713717
_cell_formula_units_Z   1
loop_
 _symmetry_equiv_pos_site_id
 _symmetry_equiv_pos_as_xyz
  1  'x, y, z'
loop_
 _atom_type_symbol
 _atom_type_oxidation_number
  Ti0+  0.0
  Mn0+  0.0
  O0+  0.0
loop_
 _atom_site_type_symbol
 _atom_site_label
 _atom_site_symmetry_multiplicity
 _atom_site_fract_x
 _atom_site_fract_y
 _atom_site_fract_z
 _atom_site_occupancy
  Ti0+  Ti0  1  0.000000  0.000000  0.497607  1.0
  Ti0+  Ti1  1  0.000000  0.000000  -0.002393  1.0
  Ti0+  Ti2  1  0.666667  0.333333  0.830940  1.0
  Ti0+  Ti3  1  0.666667  0.333333  0.330940  1.0
  Ti0+  Ti4  1  0.333333  0.666667  0.164273  1.0
  Ti0+  Ti5  1  0.333333  0.666667  0.664273  1.0
  Ti0+  Ti6  1  0.000000  0.000000  0.787647  0.25
  Mn0+  Mn7  1  0.000000  0.000000  0.787647  0.75
  Ti0+  Ti8  1  0.000000  0.000000  0.287647  0.25
  Mn0+  Mn9  1  0.000000  0.000000  0.287647  0.75
  Ti0+  Ti10  1  0.666667  0.333333  0.120980  0.25
  Mn0+  Mn11  1  0.666667  0.333333  0.120980  0.75
  Ti0+  Ti12  1  0.666667  0.333333  0.620980  0.25
  Mn0+  Mn13  1  0.666667  0.333333  0.620980  0.75
  Ti0+  Ti14  1  0.333333  0.666667  0.454313  0.25
  Mn0+  Mn15  1  0.333333  0.666667  0.454313  0.75
  Ti0+  Ti16  1  0.333333  0.666667  0.954313  0.25
  Mn0+  Mn17  1  0.333333  0.666667  0.954313  0.75
  O0+  O18  1  0.305911  0.345722  0.562882  1.0
  O0+  O19  1  0.039811  0.694089  0.562882  1.0
  O0+  O20  1  0.654278  0.960189  0.562882  1.0
  O0+  O21  1  0.305911  0.960189  0.062882  1.0
  O0+  O22  1  0.654278  0.694089  0.062882  1.0
  O0+  O23  1  0.039811  0.345722  0.062882  1.0
  O0+  O24  1  0.972578  0.679056  0.896216  1.0
  O0+  O25  1  0.706478  0.027422  0.896216  1.0
  O0+  O26  1  0.320944  0.293522  0.896216  1.0
  O0+  O27  1  0.972578  0.293522  0.396216  1.0
  O0+  O28  1  0.320944  0.027422  0.396216  1.0
  O0+  O29  1  0.706478  0.679056  0.396216  1.0
  O0+  O30  1  0.639244  0.012389  0.229549  1.0
  O0+  O31  1  0.373144  0.360756  0.229549  1.0
  O0+  O32  1  0.987611  0.626856  0.229549  1.0
  O0+  O33  1  0.639244  0.626856  0.729549  1.0
  O0+  O34  1  0.987611  0.360756  0.729549  1.0
  O0+  O35  1  0.373144  0.012389  0.729549  1.0
