# generated using pymatgen
data_Ti7.5Mn4.5O18
_symmetry_space_group_name_H-M   'P 1'
_cell_length_a   5.13860000
_cell_length_b   5.13860000
_cell_length_c   14.31260000
_cell_angle_alpha   90.00000000
_cell_angle_beta   90.00000000
_cell_angle_gamma   120.00000000
_symmetry_Int_Tables_number   1
_chemical_formula_structural   Ti7.5Mn4.5O18
_chemical_formula_sum   'Ti7.5 Mn4.5 O18'
_cell_volume   327.29456297
_cell_formula_units_Z   1
loop_
 _symmetry_equiv_pos_site_id
 _symmetry_equiv_pos_as_xyz
  1  'x, y, z'
loop_
 _atom_type_symbol
 _atom_type_oxidation_number
  Ti0+  0.0
  Mn0+  0.0
  O0+  0.0
loop_
 _atom_site_type_symbol
 _atom_site_label
 _atom_site_symmetry_multiplicity
 _atom_site_fract_x
 _atom_site_fract_y
 _atom_site_fract_z
 _atom_site_occupancy
  Ti0+  Ti0  1  0.000000  0.000000  0.140200  0.25
  Mn0+  Mn1  1  0.000000  0.000000  0.140200  0.75
  Ti0+  Ti2  1  0.000000  0.000000  0.647700  1.0
  Ti0+  Ti3  1  0.000000  0.000000  0.859800  0.25
  Mn0+  Mn4  1  0.000000  0.000000  0.859800  0.75
  Ti0+  Ti5  1  0.000000  0.000000  0.352300  1.0
  Ti0+  Ti6  1  0.666667  0.333333  0.473533  0.25
  Mn0+  Mn7  1  0.666667  0.333333  0.473533  0.75
  Ti0+  Ti8  1  0.666667  0.333333  0.981033  1.0
  Ti0+  Ti9  1  0.666667  0.333333  0.193133  0.25
  Mn0+  Mn10  1  0.666667  0.333333  0.193133  0.75
  Ti0+  Ti11  1  0.666667  0.333333  0.685633  1.0
  Ti0+  Ti12  1  0.333333  0.666667  0.806867  0.25
  Mn0+  Mn13  1  0.333333  0.666667  0.806867  0.75
  Ti0+  Ti14  1  0.333333  0.666667  0.314367  1.0
  Ti0+  Ti15  1  0.333333  0.666667  0.526467  0.25
  Mn0+  Mn16  1  0.333333  0.666667  0.526467  0.75
  Ti0+  Ti17  1  0.333333  0.666667  0.018967  1.0
  O0+  O18  1  0.293800  -0.023600  0.255200  1.0
  O0+  O19  1  0.682600  0.706200  0.255200  1.0
  O0+  O20  1  0.023600  0.317400  0.255200  1.0
  O0+  O21  1  0.317400  0.293800  0.744800  1.0
  O0+  O22  1  -0.023600  0.682600  0.744800  1.0
  O0+  O23  1  0.706200  0.023600  0.744800  1.0
  O0+  O24  1  0.960467  0.309733  0.588533  1.0
  O0+  O25  1  0.349267  0.039533  0.588533  1.0
  O0+  O26  1  0.690267  0.650733  0.588533  1.0
  O0+  O27  1  0.984067  0.627133  0.078133  1.0
  O0+  O28  1  0.643067  0.015933  0.078133  1.0
  O0+  O29  1  0.372867  0.356933  0.078133  1.0
  O0+  O30  1  0.627133  0.643067  0.921867  1.0
  O0+  O31  1  0.015933  0.372867  0.921867  1.0
  O0+  O32  1  0.356933  0.984067  0.921867  1.0
  O0+  O33  1  0.650733  0.960467  0.411467  1.0
  O0+  O34  1  0.309733  0.349267  0.411467  1.0
  O0+  O35  1  0.039533  0.690267  0.411467  1.0
