# generated using pymatgen
data_TiMn3F12
_symmetry_space_group_name_H-M   'P 1'
_cell_length_a   8.72859952
_cell_length_b   4.97113333
_cell_length_c   13.65229645
_cell_angle_alpha   90.00000000
_cell_angle_beta   91.76616898
_cell_angle_gamma   90.00000000
_symmetry_Int_Tables_number   1
_chemical_formula_structural   TiMn3F12
_chemical_formula_sum   'Ti3 Mn9 F36'
_cell_volume   592.10580838
_cell_formula_units_Z   3
loop_
 _symmetry_equiv_pos_site_id
 _symmetry_equiv_pos_as_xyz
  1  'x, y, z'
loop_
 _atom_type_symbol
 _atom_type_oxidation_number
  Ti0+  0.0
  Mn0+  0.0
  F0+  0.0
loop_
 _atom_site_type_symbol
 _atom_site_label
 _atom_site_symmetry_multiplicity
 _atom_site_fract_x
 _atom_site_fract_y
 _atom_site_fract_z
 _atom_site_occupancy
  Ti0+  Ti0  1  0.000000  0.000000  0.500000  0.25
  Mn0+  Mn1  1  0.000000  0.000000  0.500000  0.75
  Ti0+  Ti2  1  0.000000  0.000000  -0.000000  0.25
  Mn0+  Mn3  1  0.000000  0.000000  -0.000000  0.75
  Ti0+  Ti4  1  0.500000  0.500000  0.500000  0.25
  Mn0+  Mn5  1  0.500000  0.500000  0.500000  0.75
  Ti0+  Ti6  1  0.500000  0.500000  -0.000000  0.25
  Mn0+  Mn7  1  0.500000  0.500000  -0.000000  0.75
  Ti0+  Ti8  1  0.166969  0.499307  0.833811  0.25
  Mn0+  Mn9  1  0.166969  0.499307  0.833811  0.75
  Ti0+  Ti10  1  0.833031  0.499307  0.666189  0.25
  Mn0+  Mn11  1  0.833031  0.499307  0.666189  0.75
  Ti0+  Ti12  1  0.833031  0.500693  0.166189  0.25
  Mn0+  Mn13  1  0.833031  0.500693  0.166189  0.75
  Ti0+  Ti14  1  0.166969  0.500693  0.333811  0.25
  Mn0+  Mn15  1  0.166969  0.500693  0.333811  0.75
  Ti0+  Ti16  1  0.666969  0.999307  0.833811  0.25
  Mn0+  Mn17  1  0.666969  0.999307  0.833811  0.75
  Ti0+  Ti18  1  0.333031  0.999307  0.666189  0.25
  Mn0+  Mn19  1  0.333031  0.999307  0.666189  0.75
  Ti0+  Ti20  1  0.333031  0.000693  0.166189  0.25
  Mn0+  Mn21  1  0.333031  0.000693  0.166189  0.75
  Ti0+  Ti22  1  0.666969  0.000693  0.333811  0.25
  Mn0+  Mn23  1  0.666969  0.000693  0.333811  0.75
  F0+  F24  1  0.166729  0.877753  0.085558  1.0
  F0+  F25  1  0.833271  0.877753  0.414442  1.0
  F0+  F26  1  0.833271  0.122247  0.914442  1.0
  F0+  F27  1  0.166729  0.122247  0.585558  1.0
  F0+  F28  1  0.666729  0.377753  0.085558  1.0
  F0+  F29  1  0.333271  0.377753  0.414442  1.0
  F0+  F30  1  0.333271  0.622247  0.914442  1.0
  F0+  F31  1  0.666729  0.622247  0.585558  1.0
  F0+  F32  1  0.313940  0.298933  0.746533  1.0
  F0+  F33  1  0.686060  0.298933  0.753467  1.0
  F0+  F34  1  0.686060  0.701067  0.253467  1.0
  F0+  F35  1  0.313940  0.701067  0.246533  1.0
  F0+  F36  1  0.813940  0.798933  0.746533  1.0
  F0+  F37  1  0.186060  0.798933  0.753467  1.0
  F0+  F38  1  0.186060  0.201067  0.253467  1.0
  F0+  F39  1  0.813940  0.201067  0.246533  1.0
  F0+  F40  1  0.481329  0.804333  0.079618  1.0
  F0+  F41  1  0.518671  0.804333  0.420382  1.0
  F0+  F42  1  0.518671  0.195667  0.920382  1.0
  F0+  F43  1  0.481329  0.195667  0.579618  1.0
  F0+  F44  1  0.981329  0.304333  0.079618  1.0
  F0+  F45  1  0.018671  0.304333  0.420382  1.0
  F0+  F46  1  0.018671  0.695667  0.920382  1.0
  F0+  F47  1  0.981329  0.695667  0.579618  1.0
  F0+  F48  1  0.151958  0.800600  0.413496  1.0
  F0+  F49  1  0.848042  0.800600  0.086504  1.0
  F0+  F50  1  0.848042  0.199400  0.586504  1.0
  F0+  F51  1  0.151958  0.199400  0.913496  1.0
  F0+  F52  1  0.651958  0.300600  0.413496  1.0
  F0+  F53  1  0.348042  0.300600  0.086504  1.0
  F0+  F54  1  0.348042  0.699400  0.586504  1.0
  F0+  F55  1  0.651958  0.699400  0.913496  1.0
  F0+  F56  1  0.000000  0.363200  0.750000  1.0
  F0+  F57  1  0.000000  0.636800  0.250000  1.0
  F0+  F58  1  0.500000  0.863200  0.750000  1.0
  F0+  F59  1  0.500000  0.136800  0.250000  1.0
