# generated using pymatgen
data_TiMn(OF)2
_symmetry_space_group_name_H-M   'P 1'
_cell_length_a   4.82160000
_cell_length_b   5.75093333
_cell_length_c   5.23253333
_cell_angle_alpha   90.00000000
_cell_angle_beta   90.00000000
_cell_angle_gamma   90.00000000
_symmetry_Int_Tables_number   1
_chemical_formula_structural   TiMn(OF)2
_chemical_formula_sum   'Ti2 Mn2 O4 F4'
_cell_volume   145.09134788
_cell_formula_units_Z   2
loop_
 _symmetry_equiv_pos_site_id
 _symmetry_equiv_pos_as_xyz
  1  'x, y, z'
loop_
 _atom_type_symbol
 _atom_type_oxidation_number
  Ti0+  0.0
  Mn0+  0.0
  O0+  0.0
  F0+  0.0
loop_
 _atom_site_type_symbol
 _atom_site_label
 _atom_site_symmetry_multiplicity
 _atom_site_fract_x
 _atom_site_fract_y
 _atom_site_fract_z
 _atom_site_occupancy
  Ti0+  Ti0  1  0.000000  0.827267  0.750000  0.5
  Mn0+  Mn1  1  0.000000  0.827267  0.750000  0.5
  Ti0+  Ti2  1  0.500000  0.672733  0.250000  0.5
  Mn0+  Mn3  1  0.500000  0.672733  0.250000  0.5
  Ti0+  Ti4  1  0.000000  0.172733  0.250000  0.5
  Mn0+  Mn5  1  0.000000  0.172733  0.250000  0.5
  Ti0+  Ti6  1  0.500000  0.327267  0.750000  0.5
  Mn0+  Mn7  1  0.500000  0.327267  0.750000  0.5
  O0+  O8  1  0.269067  0.608800  0.921600  0.5
  F0+  F9  1  0.269067  0.608800  0.921600  0.5
  O0+  O10  1  0.230933  0.891200  0.421600  0.5
  F0+  F11  1  0.230933  0.891200  0.421600  0.5
  O0+  O12  1  0.769067  0.891200  0.078400  0.5
  F0+  F13  1  0.769067  0.891200  0.078400  0.5
  O0+  O14  1  0.730933  0.608800  0.578400  0.5
  F0+  F15  1  0.730933  0.608800  0.578400  0.5
  O0+  O16  1  0.730933  0.391200  0.078400  0.5
  F0+  F17  1  0.730933  0.391200  0.078400  0.5
  O0+  O18  1  0.769067  0.108800  0.578400  0.5
  F0+  F19  1  0.769067  0.108800  0.578400  0.5
  O0+  O20  1  0.230933  0.108800  0.921600  0.5
  F0+  F21  1  0.230933  0.108800  0.921600  0.5
  O0+  O22  1  0.269067  0.391200  0.421600  0.5
  F0+  F23  1  0.269067  0.391200  0.421600  0.5
