# generated using pymatgen
data_TiMnF6
_symmetry_space_group_name_H-M   'P 1'
_cell_length_a   8.53744036
_cell_length_b   4.89506667
_cell_length_c   13.83070810
_cell_angle_alpha   90.00000000
_cell_angle_beta   90.88669900
_cell_angle_gamma   90.00000000
_symmetry_Int_Tables_number   1
_chemical_formula_structural   TiMnF6
_chemical_formula_sum   'Ti6 Mn6 F36'
_cell_volume   577.93460570
_cell_formula_units_Z   6
loop_
 _symmetry_equiv_pos_site_id
 _symmetry_equiv_pos_as_xyz
  1  'x, y, z'
loop_
 _atom_type_symbol
 _atom_type_oxidation_number
  Ti0+  0.0
  Mn0+  0.0
  F0+  0.0
loop_
 _atom_site_type_symbol
 _atom_site_label
 _atom_site_symmetry_multiplicity
 _atom_site_fract_x
 _atom_site_fract_y
 _atom_site_fract_z
 _atom_site_occupancy
  Ti0+  Ti0  1  0.000000  0.000000  0.500000  0.5
  Mn0+  Mn1  1  0.000000  0.000000  0.500000  0.5
  Ti0+  Ti2  1  0.000000  0.000000  -0.000000  0.5
  Mn0+  Mn3  1  0.000000  0.000000  -0.000000  0.5
  Ti0+  Ti4  1  0.500000  0.500000  0.500000  0.5
  Mn0+  Mn5  1  0.500000  0.500000  0.500000  0.5
  Ti0+  Ti6  1  0.500000  0.500000  -0.000000  0.5
  Mn0+  Mn7  1  0.500000  0.500000  -0.000000  0.5
  Ti0+  Ti8  1  0.166818  0.499653  0.833572  0.5
  Mn0+  Mn9  1  0.166818  0.499653  0.833572  0.5
  Ti0+  Ti10  1  0.833182  0.499653  0.666428  0.5
  Mn0+  Mn11  1  0.833182  0.499653  0.666428  0.5
  Ti0+  Ti12  1  0.833182  0.500347  0.166428  0.5
  Mn0+  Mn13  1  0.833182  0.500347  0.166428  0.5
  Ti0+  Ti14  1  0.166818  0.500347  0.333572  0.5
  Mn0+  Mn15  1  0.166818  0.500347  0.333572  0.5
  Ti0+  Ti16  1  0.666818  0.999653  0.833572  0.5
  Mn0+  Mn17  1  0.666818  0.999653  0.833572  0.5
  Ti0+  Ti18  1  0.333182  0.999653  0.666428  0.5
  Mn0+  Mn19  1  0.333182  0.999653  0.666428  0.5
  Ti0+  Ti20  1  0.333182  0.000347  0.166428  0.5
  Mn0+  Mn21  1  0.333182  0.000347  0.166428  0.5
  Ti0+  Ti22  1  0.666818  0.000347  0.333572  0.5
  Mn0+  Mn23  1  0.666818  0.000347  0.333572  0.5
  F0+  F24  1  0.166698  0.860877  0.084446  1.0
  F0+  F25  1  0.833302  0.860877  0.415554  1.0
  F0+  F26  1  0.833302  0.139123  0.915554  1.0
  F0+  F27  1  0.166698  0.139123  0.584446  1.0
  F0+  F28  1  0.666698  0.360877  0.084446  1.0
  F0+  F29  1  0.333302  0.360877  0.415554  1.0
  F0+  F30  1  0.333302  0.639123  0.915554  1.0
  F0+  F31  1  0.666698  0.639123  0.584446  1.0
  F0+  F32  1  0.320970  0.313467  0.748267  1.0
  F0+  F33  1  0.679030  0.313467  0.751733  1.0
  F0+  F34  1  0.679030  0.686533  0.251733  1.0
  F0+  F35  1  0.320970  0.686533  0.248267  1.0
  F0+  F36  1  0.820970  0.813467  0.748267  1.0
  F0+  F37  1  0.179030  0.813467  0.751733  1.0
  F0+  F38  1  0.179030  0.186533  0.251733  1.0
  F0+  F39  1  0.820970  0.186533  0.248267  1.0
  F0+  F40  1  0.487998  0.816167  0.081476  1.0
  F0+  F41  1  0.512002  0.816167  0.418524  1.0
  F0+  F42  1  0.512002  0.183833  0.918524  1.0
  F0+  F43  1  0.487998  0.183833  0.581476  1.0
  F0+  F44  1  0.987998  0.316167  0.081476  1.0
  F0+  F45  1  0.012002  0.316167  0.418524  1.0
  F0+  F46  1  0.012002  0.683833  0.918524  1.0
  F0+  F47  1  0.987998  0.683833  0.581476  1.0
  F0+  F48  1  0.156646  0.814300  0.415081  1.0
  F0+  F49  1  0.843354  0.814300  0.084919  1.0
  F0+  F50  1  0.843354  0.185700  0.584919  1.0
  F0+  F51  1  0.156646  0.185700  0.915081  1.0
  F0+  F52  1  0.656646  0.314300  0.415081  1.0
  F0+  F53  1  0.343354  0.314300  0.084919  1.0
  F0+  F54  1  0.343354  0.685700  0.584919  1.0
  F0+  F55  1  0.656646  0.685700  0.915081  1.0
  F0+  F56  1  0.000000  0.353600  0.750000  1.0
  F0+  F57  1  0.000000  0.646400  0.250000  1.0
  F0+  F58  1  0.500000  0.853600  0.750000  1.0
  F0+  F59  1  0.500000  0.146400  0.250000  1.0
