# generated using pymatgen
data_TiMn3(OF3)2
_symmetry_space_group_name_H-M   'P 1'
_cell_length_a   5.10220000
_cell_length_b   5.10686667
_cell_length_c   5.10460000
_cell_angle_alpha   90.00000000
_cell_angle_beta   90.00000000
_cell_angle_gamma   90.00000000
_symmetry_Int_Tables_number   1
_chemical_formula_structural   TiMn3(OF3)2
_chemical_formula_sum   'Ti1 Mn3 O2 F6'
_cell_volume   133.00675982
_cell_formula_units_Z   1
loop_
 _symmetry_equiv_pos_site_id
 _symmetry_equiv_pos_as_xyz
  1  'x, y, z'
loop_
 _atom_type_symbol
 _atom_type_oxidation_number
  Ti0+  0.0
  Mn0+  0.0
  O0+  0.0
  F0+  0.0
loop_
 _atom_site_type_symbol
 _atom_site_label
 _atom_site_symmetry_multiplicity
 _atom_site_fract_x
 _atom_site_fract_y
 _atom_site_fract_z
 _atom_site_occupancy
  Ti0+  Ti0  1  0.500000  0.000000  0.000000  0.25
  Mn0+  Mn1  1  0.500000  0.000000  0.000000  0.75
  Ti0+  Ti2  1  0.000000  0.500000  0.000000  0.25
  Mn0+  Mn3  1  0.000000  0.500000  0.000000  0.75
  Ti0+  Ti4  1  0.500000  0.500000  0.500000  0.25
  Mn0+  Mn5  1  0.500000  0.500000  0.500000  0.75
  Ti0+  Ti6  1  0.000000  0.000000  0.500000  0.25
  Mn0+  Mn7  1  0.000000  0.000000  0.500000  0.75
  O0+  O8  1  0.340667  0.840067  0.659400  0.25
  F0+  F9  1  0.340667  0.840067  0.659400  0.75
  O0+  O10  1  0.840667  0.659933  0.340600  0.25
  F0+  F11  1  0.840667  0.659933  0.340600  0.75
  O0+  O12  1  0.659333  0.340067  0.840600  0.25
  F0+  F13  1  0.659333  0.340067  0.840600  0.75
  O0+  O14  1  0.159333  0.159933  0.159400  0.25
  F0+  F15  1  0.159333  0.159933  0.159400  0.75
  O0+  O16  1  0.659333  0.159933  0.340600  0.25
  F0+  F17  1  0.659333  0.159933  0.340600  0.75
  O0+  O18  1  0.159333  0.340067  0.659400  0.25
  F0+  F19  1  0.159333  0.340067  0.659400  0.75
  O0+  O20  1  0.340667  0.659933  0.159400  0.25
  F0+  F21  1  0.340667  0.659933  0.159400  0.75
  O0+  O22  1  0.840667  0.840067  0.840600  0.25
  F0+  F23  1  0.840667  0.840067  0.840600  0.75
