# generated using pymatgen
data_TiMn3(OF3)2
_symmetry_space_group_name_H-M   'P 1'
_cell_length_a   4.93840000
_cell_length_b   5.83140000
_cell_length_c   5.38230000
_cell_angle_alpha   90.00000000
_cell_angle_beta   90.00000000
_cell_angle_gamma   90.00000000
_symmetry_Int_Tables_number   1
_chemical_formula_structural   TiMn3(OF3)2
_chemical_formula_sum   'Ti1 Mn3 O2 F6'
_cell_volume   154.99832230
_cell_formula_units_Z   1
loop_
 _symmetry_equiv_pos_site_id
 _symmetry_equiv_pos_as_xyz
  1  'x, y, z'
loop_
 _atom_type_symbol
 _atom_type_oxidation_number
  Ti0+  0.0
  Mn0+  0.0
  O0+  0.0
  F0+  0.0
loop_
 _atom_site_type_symbol
 _atom_site_label
 _atom_site_symmetry_multiplicity
 _atom_site_fract_x
 _atom_site_fract_y
 _atom_site_fract_z
 _atom_site_occupancy
  Ti0+  Ti0  1  0.000000  0.829400  0.750000  0.25
  Mn0+  Mn1  1  0.000000  0.829400  0.750000  0.75
  Ti0+  Ti2  1  0.500000  0.670600  0.250000  0.25
  Mn0+  Mn3  1  0.500000  0.670600  0.250000  0.75
  Ti0+  Ti4  1  0.000000  0.170600  0.250000  0.25
  Mn0+  Mn5  1  0.000000  0.170600  0.250000  0.75
  Ti0+  Ti6  1  0.500000  0.329400  0.750000  0.25
  Mn0+  Mn7  1  0.500000  0.329400  0.750000  0.75
  O0+  O8  1  0.268100  0.603700  0.922900  0.25
  F0+  F9  1  0.268100  0.603700  0.922900  0.75
  O0+  O10  1  0.231900  0.896300  0.422900  0.25
  F0+  F11  1  0.231900  0.896300  0.422900  0.75
  O0+  O12  1  0.768100  0.896300  0.077100  0.25
  F0+  F13  1  0.768100  0.896300  0.077100  0.75
  O0+  O14  1  0.731900  0.603700  0.577100  0.25
  F0+  F15  1  0.731900  0.603700  0.577100  0.75
  O0+  O16  1  0.731900  0.396300  0.077100  0.25
  F0+  F17  1  0.731900  0.396300  0.077100  0.75
  O0+  O18  1  0.768100  0.103700  0.577100  0.25
  F0+  F19  1  0.768100  0.103700  0.577100  0.75
  O0+  O20  1  0.231900  0.103700  0.922900  0.25
  F0+  F21  1  0.231900  0.103700  0.922900  0.75
  O0+  O22  1  0.268100  0.396300  0.422900  0.25
  F0+  F23  1  0.268100  0.396300  0.422900  0.75
